@<TRIPOS>MOLECULE
CHEMBL505121 MolPort-046-162-809 PubChem-129316182 PubChem-44571034
 64 66 0 0 0
SMALL
GASTEIGER

@<TRIPOS>ATOM
      1  C          2.6720   -6.6540  -11.5880 C.3     1  UNL1        0.0645
      2  C          2.8270   -5.1420  -11.6850 C.3     1  UNL1        0.0056
      3  C          1.5850   -6.9560  -10.5700 C.3     1  UNL1        0.0056
      4  C          3.9990   -7.3360  -11.1780 C.3     1  UNL1        0.2312
      5  O          5.0860   -6.8100  -11.8810 O.3     1  UNL1       -0.2131
      6  C          4.2870   -7.3090   -9.7080 C.2     1  UNL1        0.2719
      7  N          4.5360   -8.5240   -8.9970 N.am    1  UNL1       -0.2028
      8  O          4.3030   -6.2040   -9.1050 O.2     1  UNL1       -0.2706
      9  C          4.8320   -8.5340   -7.5740 C.3     1  UNL1        0.1248
     10  C          6.3300   -8.3830   -7.3560 C.3     1  UNL1        0.1102
     11  C          6.6390   -8.1660   -5.9140 C.2     1  UNL1        0.2432
     12  N          7.3350   -6.9860   -5.5150 N.am    1  UNL1       -0.2044
     13  O          6.2600   -9.0080   -5.0560 O.2     1  UNL1       -0.2733
     14  C          7.7130   -6.7470   -4.1310 C.3     1  UNL1        0.1268
     15  C          8.9130   -5.8220   -4.0750 C.3     1  UNL1        0.0814
     16  S          8.5370   -4.3710   -3.0450 S.3     1  UNL1       -0.1287
     17  C         10.2920   -4.0060   -2.7560 C.3     1  UNL1        0.1442
     18  C         10.4530   -2.5970   -2.2960 C.2     1  UNL1        0.2524
     19  N         11.6370   -1.8720   -2.6360 N.am    1  UNL1       -0.2047
     20  O          9.5600   -2.0690   -1.5800 O.2     1  UNL1       -0.2724
     21  C         11.8780   -0.5010   -2.2080 C.3     1  UNL1        0.1152
     22  C         12.7440    0.2390   -3.2210 C.3     1  UNL1        0.0235
     23  C         12.0980    1.5500   -3.6600 C.3     1  UNL1        0.0041
     24  C         11.7600    1.5440   -5.1470 C.3     1  UNL1        0.0312
     25  C         10.4440    0.8290   -5.4280 C.3     1  UNL1        0.1744
     26  N         10.6910   -0.4860   -6.0050 N.am    1  UNL1       -0.1977
     27  C          9.8060   -1.5870   -5.8040 C.2     1  UNL1        0.2423
     28  C         10.1330   -2.9080   -6.3990 C.3     1  UNL1        0.0964
     29  O          8.7450   -1.4480   -5.1390 O.2     1  UNL1       -0.2733
     30  C          9.6170    1.6440   -6.3660 C.2     1  UNL1        0.2806
     31  N         10.1460    2.0670   -7.6190 N.am    1  UNL1       -0.0863
     32  O          8.4430    1.9590   -6.0460 O.2     1  UNL1       -0.2698
     33  C          2.1820   -7.2110  -12.9250 C.3     1  UNL1        0.1519
     34  O          1.4540   -6.2610  -13.6510 O.3     1  UNL1       -0.3138
     35  P          0.1900   -7.1260  -14.3800 P.3     1  UNL1        0.2188
     36  O         -1.0730   -7.2740  -13.2650 O.3     1  UNL1       -0.4371
     37  O          0.6810   -8.5070  -14.7610 O.2     1  UNL1       -0.5170
     38  O         -0.3570   -6.2620  -15.7440 O.3     1  UNL1       -0.2703
     39  P         -2.0200   -6.5700  -15.9340 P.3     1  UNL1        0.2189
     40  O         -2.8520   -5.7830  -14.6870 O.3     1  UNL1       -0.4371
     41  O         -2.3080   -8.0540  -15.8520 O.2     1  UNL1       -0.5170
     42  O         -2.5340   -5.9510  -17.4290 O.3     1  UNL1       -0.3112
     43  C         -3.0210   -7.0410  -18.1540 C.3     1  UNL1        0.1812
     44  C         -4.3450   -6.6860  -18.8140 C.3     1  UNL1        0.1795
     45  O         -5.0910   -5.8360  -17.9810 O.3     1  UNL1       -0.3136
     46  C         -5.8140   -4.9650  -18.8260 C.3     1  UNL1        0.3185
     47  C         -5.3270   -5.1140  -20.2560 C.3     1  UNL1        0.2543
     48  O         -6.3100   -5.7730  -21.0000 O.3     1  UNL1       -0.2131
     49  C         -4.0950   -5.9640  -20.1100 C.3     1  UNL1        0.1928
     50  N         -5.6560   -3.5810  -18.3850 N.pl3   1  UNL1       -0.1439
     51  C         -6.6200   -2.7180  -18.0500 C.2     1  UNL1        0.3518
     52  C         -6.0650   -1.5380  -17.6980 C.2     1  UNL1        0.2526
     53  N         -7.9610   -2.9250  -18.0490 N.2     1  UNL1       -0.0055
     54  N         -4.7240   -1.6040  -17.7900 N.2     1  UNL1       -0.2095
     55  C         -6.8740   -0.4800  -17.3160 C.2     1  UNL1        0.4393
     56  C         -4.5040   -2.8810  -18.2150 C.3     1  UNL1        0.3377
     57  N         -6.3250    0.7780  -16.9410 N.pl3   1  UNL1        0.2180
     58  N         -8.2260   -0.6790  -17.3120 N.2     1  UNL1        0.0021
     59  C         -8.7670   -1.8870  -17.6740 C.3     1  UNL1        0.5254
     60  O         -3.9440   -6.8670  -21.1700 O.3     1  UNL1       -0.2673
     61  P         -2.5170   -6.4020  -21.9660 P.3     1  UNL1        0.5327
     62  O         -1.6190   -7.7840  -22.3480 O.3     1  UNL1       -0.1145
     63  O         -2.8880   -5.5740  -23.3950 O.2     1  UNL1       -0.2224
     64  O         -1.6950   -5.5090  -21.0640 O.3     1  UNL1       -0.1145
@<TRIPOS>BOND
     1    63    61    2
     2    62    61    1
     3    61    60    1
     4    61    64    1
     5    60    49    1
     6    48    47    1
     7    47    49    1
     8    47    46    1
     9    49    44    1
    10    46    50    1
    11    46    45    1
    12    44    43    1
    13    44    45    1
    14    50    56    1
    15    50    51    1
    16    56    54    1
    17    43    42    1
    18    51    53    2
    19    51    52    1
    20    53    59    1
    21    54    52    2
    22    52    55    1
    23    59    58    1
    24    42    39    1
    25    55    58    2
    26    55    57    1
    27    39    41    2
    28    39    38    1
    29    39    40    1
    30    38    35    1
    31    37    35    2
    32    35    34    1
    33    35    36    1
    34    34    33    1
    35    33     1    1
    36     5     4    1
    37     2     1    1
    38     1     4    1
    39     1     3    1
    40     4     6    1
    41     6     8    2
    42     6     7   am
    43     7     9    1
    44    31    30   am
    45     9    10    1
    46    10    11    1
    47    28    27    1
    48    30    32    2
    49    30    25    1
    50    26    27   am
    51    26    25    1
    52    11    12   am
    53    11    13    2
    54    27    29    2
    55    12    14    1
    56    25    24    1
    57    24    23    1
    58    14    15    1
    59    15    16    1
    60    23    22    1
    61    22    21    1
    62    16    17    1
    63    17    18    1
    64    19    18   am
    65    19    21    1
    66    18    20    2
@<TRIPOS>MOLECULE
CHEMBL505121 MolPort-046-162-809 PubChem-129316182 PubChem-44571034
 64 66 0 0 0
SMALL
GASTEIGER

@<TRIPOS>ATOM
      1  C          2.9860   -6.9020  -11.5760 C.3     1  UNL1        0.0645
      2  C          3.2970   -5.4430  -11.8770 C.3     1  UNL1        0.0056
      3  C          1.8550   -6.9490  -10.5620 C.3     1  UNL1        0.0056
      4  C          4.2280   -7.6480  -11.0320 C.3     1  UNL1        0.2312
      5  O          5.3910   -7.2750  -11.7120 O.3     1  UNL1       -0.2131
      6  C          4.4410   -7.5120   -9.5550 C.2     1  UNL1        0.2719
      7  N          4.6960   -8.6660   -8.7510 N.am    1  UNL1       -0.2028
      8  O          4.3900   -6.3690   -9.0290 O.2     1  UNL1       -0.2706
      9  C          4.9200   -8.5690   -7.3180 C.3     1  UNL1        0.1248
     10  C          6.4080   -8.4330   -7.0360 C.3     1  UNL1        0.1102
     11  C          6.6500   -8.0860   -5.6060 C.2     1  UNL1        0.2432
     12  N          7.3260   -6.8720   -5.2840 N.am    1  UNL1       -0.2044
     13  O          6.2310   -8.8490   -4.6950 O.2     1  UNL1       -0.2733
     14  C          7.6390   -6.5080   -3.9110 C.3     1  UNL1        0.1268
     15  C          8.8910   -5.6550   -3.8750 C.3     1  UNL1        0.0814
     16  S          8.9060   -4.6270   -2.3740 S.3     1  UNL1       -0.1287
     17  C         10.5800   -4.0050   -2.7050 C.3     1  UNL1        0.1442
     18  C         10.6350   -2.5330   -2.4690 C.2     1  UNL1        0.2524
     19  N         11.6600   -1.7540   -3.0910 N.am    1  UNL1       -0.2047
     20  O          9.7980   -1.9950   -1.6960 O.2     1  UNL1       -0.2724
     21  C         11.7930   -0.3170   -2.8940 C.3     1  UNL1        0.1152
     22  C         12.3410    0.3530   -4.1480 C.3     1  UNL1        0.0235
     23  C         11.8860    1.8050   -4.2540 C.3     1  UNL1        0.0041
     24  C         11.0950    2.0590   -5.5330 C.3     1  UNL1        0.0312
     25  C         10.1080    0.9340   -5.8240 C.3     1  UNL1        0.1744
     26  N         10.4380    0.2780   -7.0810 N.am    1  UNL1       -0.1977
     27  C         10.6150   -1.1340   -7.1830 C.2     1  UNL1        0.2423
     28  C         10.9770   -1.7360   -8.4910 C.3     1  UNL1        0.0964
     29  O         10.4550   -1.8780   -6.1780 O.2     1  UNL1       -0.2733
     30  C          8.7220    1.4850   -5.8910 C.2     1  UNL1        0.2806
     31  N          7.6910    0.7750   -6.5690 N.am    1  UNL1       -0.0863
     32  O          8.4640    2.5870   -5.3430 O.2     1  UNL1       -0.2698
     33  C          2.4670   -7.5910  -12.8380 C.3     1  UNL1        0.1519
     34  O          1.1510   -7.2160  -13.1350 O.3     1  UNL1       -0.3138
     35  P          0.9640   -7.5100  -14.7950 P.3     1  UNL1        0.2188
     36  O          0.4610   -9.1110  -15.0040 O.3     1  UNL1       -0.4371
     37  O          2.2930   -7.3110  -15.4930 O.2     1  UNL1       -0.5170
     38  O         -0.2260   -6.4570  -15.4120 O.3     1  UNL1       -0.2703
     39  P         -1.7430   -6.9840  -14.8470 P.3     1  UNL1        0.2189
     40  O         -1.6060   -7.3270  -13.1950 O.3     1  UNL1       -0.4371
     41  O         -2.1830   -8.2390  -15.5700 O.2     1  UNL1       -0.5170
     42  O         -2.8820   -5.7450  -15.0710 O.3     1  UNL1       -0.3112
     43  C         -2.4480   -5.0150  -16.1800 C.3     1  UNL1        0.1812
     44  C         -3.6400   -4.4650  -16.9480 C.3     1  UNL1        0.1795
     45  O         -3.4320   -3.1130  -17.2660 O.3     1  UNL1       -0.3136
     46  C         -4.0520   -2.8850  -18.5150 C.3     1  UNL1        0.3185
     47  C         -4.4720   -4.2070  -19.1300 C.3     1  UNL1        0.2543
     48  O         -5.8650   -4.3100  -19.0700 O.3     1  UNL1       -0.2131
     49  C         -3.8140   -5.2220  -18.2360 C.3     1  UNL1        0.1928
     50  N         -3.1400   -2.1820  -19.4140 N.pl3   1  UNL1       -0.1439
     51  C         -2.7270   -0.9130  -19.3270 C.2     1  UNL1        0.3518
     52  C         -1.8890   -0.6430  -20.3500 C.2     1  UNL1        0.2526
     53  N         -3.0630    0.0100  -18.3920 N.2     1  UNL1       -0.0055
     54  N         -1.7290   -1.7300  -21.1280 N.2     1  UNL1       -0.2095
     55  C         -1.3340    0.6220  -20.4740 C.2     1  UNL1        0.4393
     56  C         -2.5150   -2.6640  -20.5200 C.3     1  UNL1        0.3377
     57  N         -0.4490    0.9440  -21.5410 N.pl3   1  UNL1        0.2180
     58  N         -1.6670    1.5590  -19.5370 N.2     1  UNL1        0.0021
     59  C         -2.5220    1.2610  -18.5060 C.3     1  UNL1        0.5254
     60  O         -4.6100   -6.3610  -18.0490 O.3     1  UNL1       -0.2673
     61  P         -3.9860   -7.5330  -19.1080 P.3     1  UNL1        0.5327
     62  O         -5.0250   -7.6930  -20.4340 O.2     1  UNL1       -0.2224
     63  O         -2.4560   -7.0640  -19.6630 O.3     1  UNL1       -0.1145
     64  O         -3.8790   -8.8630  -18.3970 O.3     1  UNL1       -0.1145
@<TRIPOS>BOND
     1    57    55    1
     2    54    56    1
     3    54    52    2
     4    56    50    1
     5    55    52    1
     6    55    58    2
     7    62    61    2
     8    52    51    1
     9    63    61    1
    10    58    59    1
    11    50    51    1
    12    50    46    1
    13    51    53    2
    14    47    48    1
    15    47    46    1
    16    47    49    1
    17    61    64    1
    18    61    60    1
    19    46    45    1
    20    59    53    1
    21    49    60    1
    22    49    44    1
    23    45    44    1
    24    44    43    1
    25    43    42    1
    26    41    39    2
    27    37    35    2
    28    38    39    1
    29    38    35    1
    30    42    39    1
    31    36    35    1
    32    39    40    1
    33    35    34    1
    34    34    33    1
    35    33     1    1
    36     2     1    1
    37     5     4    1
    38     1     4    1
    39     1     3    1
    40     4     6    1
    41     6     8    2
    42     6     7   am
    43     7     9    1
    44    28    27    1
    45     9    10    1
    46    27    26   am
    47    27    29    2
    48    26    25    1
    49    10    11    1
    50    31    30   am
    51    30    25    1
    52    30    32    2
    53    25    24    1
    54    11    12   am
    55    11    13    2
    56    24    23    1
    57    12    14    1
    58    23    22    1
    59    22    21    1
    60    14    15    1
    61    15    16    1
    62    19    21    1
    63    19    18   am
    64    17    18    1
    65    17    16    1
    66    18    20    2
@<TRIPOS>MOLECULE
CHEMBL505121 MolPort-046-162-809 PubChem-129316182 PubChem-44571034
 64 66 0 0 0
SMALL
GASTEIGER

@<TRIPOS>ATOM
      1  C         -0.5930   -7.3350  -15.5440 C.3     1  UNL1        0.0645
      2  C          0.0890   -8.6960  -15.5480 C.3     1  UNL1        0.0056
      3  C          0.2300   -6.3870  -16.4000 C.3     1  UNL1        0.0056
      4  C         -0.7390   -6.7760  -14.1080 C.3     1  UNL1        0.2312
      5  O         -1.9570   -7.1460  -13.5330 O.3     1  UNL1       -0.2131
      6  C          0.3850   -7.1330  -13.1830 C.2     1  UNL1        0.2719
      7  N          1.6620   -6.5060  -13.3200 N.am    1  UNL1       -0.2028
      8  O          0.1920   -7.9950  -12.2850 O.2     1  UNL1       -0.2706
      9  C          2.7700   -6.8180  -12.4310 C.3     1  UNL1        0.1248
     10  C          3.0170   -5.6550  -11.4830 C.3     1  UNL1        0.1102
     11  C          3.7810   -6.0990  -10.2830 C.2     1  UNL1        0.2432
     12  N          4.2180   -7.4540  -10.1900 N.am    1  UNL1       -0.2044
     13  O          4.0610   -5.2710   -9.3750 O.2     1  UNL1       -0.2733
     14  C          4.9180   -7.9570   -9.0190 C.3     1  UNL1        0.1268
     15  C          6.2170   -8.6170   -9.4380 C.3     1  UNL1        0.0814
     16  S          7.1650   -9.1230   -7.9700 S.3     1  UNL1       -0.1287
     17  C          7.5270   -7.4070   -7.4990 C.3     1  UNL1        0.1442
     18  C          9.0000   -7.1780   -7.4930 C.2     1  UNL1        0.2524
     19  N          9.5110   -5.8530   -7.3250 N.am    1  UNL1       -0.2047
     20  O          9.7830   -8.1500   -7.6730 O.2     1  UNL1       -0.2724
     21  C         10.9350   -5.5450   -7.3290 C.3     1  UNL1        0.1152
     22  C         11.2100   -4.2500   -6.5740 C.3     1  UNL1        0.0235
     23  C         10.4380   -3.0770   -7.1700 C.3     1  UNL1        0.0041
     24  C         11.0410   -1.7380   -6.7630 C.3     1  UNL1        0.0312
     25  C         10.0130   -0.8290   -6.0990 C.3     1  UNL1        0.1744
     26  N          9.1050   -1.6070   -5.2680 N.am    1  UNL1       -0.1977
     27  C          9.3390   -1.8270   -3.8780 C.2     1  UNL1        0.2423
     28  C          8.3860   -2.6540   -3.0950 C.3     1  UNL1        0.0964
     29  O         10.3380   -1.3170   -3.3040 O.2     1  UNL1       -0.2733
     30  C          9.2380   -0.0960   -7.1430 C.2     1  UNL1        0.2806
     31  N          9.8770    0.3680   -8.3280 N.am    1  UNL1       -0.0863
     32  O          8.0110    0.1150   -6.9730 O.2     1  UNL1       -0.2698
     33  C         -1.9660   -7.4420  -16.2100 C.3     1  UNL1        0.1519
     34  O         -1.9840   -8.4170  -17.2140 O.3     1  UNL1       -0.3138
     35  P         -3.0620   -7.8330  -18.3860 P.3     1  UNL1        0.2188
     36  O         -4.1520   -9.0660  -18.7760 O.3     1  UNL1       -0.4371
     37  O         -2.2900   -7.4410  -19.6290 O.2     1  UNL1       -0.5170
     38  O         -3.9150   -6.5060  -17.7400 O.3     1  UNL1       -0.2703
     39  P         -5.2540   -6.1980  -18.7450 P.3     1  UNL1        0.2189
     40  O         -6.4820   -7.2920  -18.3450 O.3     1  UNL1       -0.4371
     41  O         -4.8910   -6.3840  -20.2020 O.2     1  UNL1       -0.5170
     42  O         -5.8030   -4.6140  -18.4700 O.3     1  UNL1       -0.3112
     43  C         -4.7610   -3.7700  -18.8610 C.3     1  UNL1        0.1812
     44  C         -4.6440   -2.5970  -17.8990 C.3     1  UNL1        0.1795
     45  O         -3.3550   -2.0420  -17.9650 O.3     1  UNL1       -0.3136
     46  C         -3.4950   -0.6540  -17.7440 C.3     1  UNL1        0.3185
     47  C         -4.9650   -0.2740  -17.7700 C.3     1  UNL1        0.2543
     48  O         -5.3760    0.0280  -16.4690 O.3     1  UNL1       -0.2131
     49  C         -5.6300   -1.5250  -18.2730 C.3     1  UNL1        0.1928
     50  N         -2.7660    0.1000  -18.7610 N.pl3   1  UNL1       -0.1439
     51  C         -2.4230    1.3910  -18.7290 C.2     1  UNL1        0.3518
     52  C         -1.7570    1.7080  -19.8600 C.2     1  UNL1        0.2526
     53  N         -2.6790    2.2970  -17.7520 N.2     1  UNL1       -0.0055
     54  N         -1.6430    0.6290  -20.6560 N.2     1  UNL1       -0.2095
     55  C         -1.3040    3.0040  -20.0560 C.2     1  UNL1        0.4393
     56  C         -2.2750   -0.3480  -19.9470 C.3     1  UNL1        0.3377
     57  N         -0.6010    3.3750  -21.2360 N.pl3   1  UNL1        0.2180
     58  N         -1.5570    3.9230  -19.0770 N.2     1  UNL1        0.0021
     59  C         -2.2370    3.5780  -17.9360 C.3     1  UNL1        0.5254
     60  O         -6.8730   -1.7480  -17.6640 O.3     1  UNL1       -0.2673
     61  P         -8.0240   -1.5910  -18.9030 P.3     1  UNL1        0.5327
     62  O         -8.6800   -3.1110  -19.2470 O.3     1  UNL1       -0.1145
     63  O         -9.2680   -0.5520  -18.4170 O.3     1  UNL1       -0.1145
     64  O         -7.3650   -1.0410  -20.1480 O.2     1  UNL1       -0.2224
@<TRIPOS>BOND
     1    57    55    1
     2    54    56    1
     3    54    52    2
     4    41    39    2
     5    64    61    2
     6    55    52    1
     7    55    58    2
     8    56    50    1
     9    52    51    1
    10    37    35    2
    11    62    61    1
    12    58    59    1
    13    61    63    1
    14    61    60    1
    15    43    42    1
    16    43    44    1
    17    36    35    1
    18    50    51    1
    19    50    46    1
    20    39    42    1
    21    39    40    1
    22    39    38    1
    23    51    53    2
    24    35    38    1
    25    35    34    1
    26    49    44    1
    27    49    47    1
    28    49    60    1
    29    45    44    1
    30    45    46    1
    31    59    53    1
    32    47    46    1
    33    47    48    1
    34    34    33    1
    35     3     1    1
    36    33     1    1
    37     2     1    1
    38     1     4    1
    39     4     5    1
    40     4     6    1
    41     7     6   am
    42     7     9    1
    43     6     8    2
    44     9    10    1
    45    10    11    1
    46    11    12   am
    47    11    13    2
    48    12    14    1
    49    15    14    1
    50    15    16    1
    51    31    30   am
    52    16    17    1
    53    20    18    2
    54    17    18    1
    55    18    19   am
    56    21    19    1
    57    21    22    1
    58    23    24    1
    59    23    22    1
    60    30    32    2
    61    30    25    1
    62    24    25    1
    63    25    26    1
    64    26    27   am
    65    27    29    2
    66    27    28    1
@<TRIPOS>MOLECULE
CHEMBL1161857 PubChem-11849527 PubChem-11849528
 63 65 0 0 0
SMALL
GASTEIGER

@<TRIPOS>ATOM
      1  C          1.9270   -6.5320  -11.7840 C.3     1  UNL1        0.1519
      2  O          1.6920   -6.4390  -13.1590 O.3     1  UNL1       -0.3138
      3  P          0.2460   -7.2840  -13.4400 P.3     1  UNL1        0.2188
      4  O          0.5970   -8.6680  -14.3490 O.2     1  UNL1       -0.5170
      5  O         -0.3500   -7.7260  -12.1230 O.3     1  UNL1       -0.4371
      6  O         -0.8970   -6.3080  -14.2420 O.3     1  UNL1       -0.2703
      7  P         -0.4150   -6.1530  -15.8680 P.3     1  UNL1        0.2189
      8  O          1.2170   -6.5870  -15.9870 O.3     1  UNL1       -0.4371
      9  O         -0.5560   -4.7190  -16.3310 O.2     1  UNL1       -0.5170
     10  O         -1.3360   -7.1620  -16.8700 O.3     1  UNL1       -0.3112
     11  C         -1.9300   -6.3080  -17.8050 C.3     1  UNL1        0.1812
     12  C         -3.4440   -6.3200  -17.6570 C.3     1  UNL1        0.1795
     13  C         -4.1020   -6.8640  -18.8970 C.3     1  UNL1        0.1928
     14  C         -5.4210   -6.1390  -18.9320 C.3     1  UNL1        0.2543
     15  C         -5.1870   -4.9330  -18.0420 C.3     1  UNL1        0.3185
     16  O         -6.4490   -6.9150  -18.3840 O.3     1  UNL1       -0.2131
     17  O         -3.9210   -5.0200  -17.4290 O.3     1  UNL1       -0.3136
     18  O         -4.2640   -8.2510  -18.7950 O.3     1  UNL1       -0.2673
     19  P         -3.7500   -8.8860  -20.2830 P.3     1  UNL1        0.5327
     20  O         -2.8090   -7.7290  -21.0790 O.3     1  UNL1       -0.1145
     21  O         -2.8170  -10.2770  -20.0320 O.3     1  UNL1       -0.1145
     22  O         -4.9480   -9.2290  -21.1410 O.2     1  UNL1       -0.2224
     23  N         -5.2930   -3.7020  -18.8230 N.pl3   1  UNL1       -0.1439
     24  C         -6.2580   -2.7770  -18.7570 C.2     1  UNL1        0.3518
     25  N         -7.3550   -2.7770  -17.9600 N.2     1  UNL1       -0.0055
     26  C         -5.9810   -1.7770  -19.6180 C.2     1  UNL1        0.2526
     27  C         -8.2090   -1.7130  -18.0490 C.3     1  UNL1        0.5254
     28  N         -7.9480   -0.6830  -18.9180 N.2     1  UNL1        0.0021
     29  C         -6.8390   -0.6910  -19.7120 C.2     1  UNL1        0.4393
     30  N         -6.5740    0.3880  -20.6000 N.pl3   1  UNL1        0.2180
     31  N         -4.8260   -2.0200  -20.2650 N.2     1  UNL1       -0.2095
     32  C         -4.4260   -3.2160  -19.7490 C.3     1  UNL1        0.3377
     33  C          3.2800   -7.1860  -11.4800 C.3     1  UNL1        0.0645
     34  C          4.0680   -7.2170  -12.7780 C.3     1  UNL1        0.0056
     35  C          3.0900   -8.6330  -11.0490 C.3     1  UNL1        0.0056
     36  C          4.0980   -6.4040  -10.4240 C.3     1  UNL1        0.2312
     37  O          3.3310   -5.3830   -9.8500 O.3     1  UNL1       -0.2131
     38  C          4.7310   -7.2520   -9.3480 C.2     1  UNL1        0.2719
     39  N          5.8620   -8.0720   -9.6510 N.am    1  UNL1       -0.2028
     40  O          4.2340   -7.2690   -8.1910 O.2     1  UNL1       -0.2706
     41  C          6.5410   -8.8490   -8.6240 C.3     1  UNL1        0.1248
     42  C          5.7880  -10.1400   -8.3400 C.3     1  UNL1        0.1102
     43  C          5.4920  -10.2930   -6.8870 C.2     1  UNL1        0.2432
     44  N          6.4420   -9.8330   -5.9260 N.am    1  UNL1       -0.2044
     45  O          4.3960  -10.7940   -6.5160 O.2     1  UNL1       -0.2733
     46  C          6.2380   -9.9830   -4.4910 C.3     1  UNL1        0.1268
     47  C          6.1040   -8.6190   -3.8400 C.3     1  UNL1        0.0814
     48  S          7.7280   -8.0220   -3.2850 S.3     1  UNL1       -0.1287
     49  C          7.2330   -6.2720   -3.4250 C.3     1  UNL1        0.1442
     50  C          8.3960   -5.3300   -3.3580 C.2     1  UNL1        0.2528
     51  N          8.1420   -3.9230   -3.3310 N.am    1  UNL1       -0.1970
     52  O          9.5820   -5.7600   -3.3220 O.2     1  UNL1       -0.2724
     53  C          9.2090   -2.9360   -3.2510 C.3     1  UNL1        0.1745
     54  C          8.9470   -1.8240   -4.2590 C.3     1  UNL1        0.0349
     55  C          9.9430   -1.8790   -5.4070 C.3     1  UNL1        0.0492
     56  C          9.6140   -0.8150   -6.4440 C.3     1  UNL1        0.2205
     57  N          9.0160    0.3490   -5.8050 N.pl3   1  UNL1       -0.0865
     58  C          9.1190    1.5560   -6.2650 C.cat   1  UNL1        0.5346
     59  N          9.8550    1.8280   -7.4540 N.pl3   1  UNL1        0.1354
     60  N          8.4890    2.6250   -5.5720 N.pl3   1  UNL1        0.1354
     61  C          9.3020   -2.3840   -1.8590 C.2     1  UNL1        0.2806
     62  N         10.3890   -1.5330   -1.5090 N.am    1  UNL1       -0.0863
     63  O          8.4230   -2.6680   -0.9980 O.2     1  UNL1       -0.2698
@<TRIPOS>BOND
     1    22    19    2
     2    20    19    1
     3    30    29    1
     4    19    21    1
     5    19    18    1
     6    31    32    1
     7    31    26    2
     8    32    23    1
     9    29    26    1
    10    29    28    2
    11    26    24    1
    12    14    13    1
    13    14    16    1
    14    14    15    1
    15    28    27    1
    16    13    18    1
    17    13    12    1
    18    23    24    1
    19    23    15    1
    20    24    25    2
    21    27    25    1
    22    15    17    1
    23    11    12    1
    24    11    10    1
    25    12    17    1
    26    10     7    1
    27     9     7    2
    28     8     7    1
    29     7     6    1
    30     4     3    2
    31     6     3    1
    32     3     2    1
    33     3     5    1
    34     2     1    1
    35    34    33    1
    36     1    33    1
    37    33    35    1
    38    33    36    1
    39    36    37    1
    40    36    38    1
    41    39    38   am
    42    39    41    1
    43    38    40    2
    44    41    42    1
    45    42    43    1
    46    59    58    1
    47    43    45    2
    48    43    44   am
    49    56    57    1
    50    56    55    1
    51    58    57    2
    52    58    60    1
    53    44    46    1
    54    55    54    1
    55    46    47    1
    56    54    53    1
    57    47    48    1
    58    49    50    1
    59    49    48    1
    60    50    51   am
    61    50    52    2
    62    51    53    1
    63    53    61    1
    64    61    62   am
    65    61    63    2
@<TRIPOS>MOLECULE
CHEMBL1161857 PubChem-11849527 PubChem-11849528
 63 65 0 0 0
SMALL
GASTEIGER

@<TRIPOS>ATOM
      1  C         -2.6790   -6.0760  -17.8060 C.3     1  UNL1        0.1519
      2  O         -3.9880   -5.5960  -17.6910 O.3     1  UNL1       -0.3138
      3  P         -4.9070   -6.4860  -18.8080 P.3     1  UNL1        0.2188
      4  O         -4.4950   -5.9840  -20.3700 O.2     1  UNL1       -0.5170
      5  O         -4.5760   -7.9560  -18.6840 O.3     1  UNL1       -0.4371
      6  O         -6.5770   -6.2910  -18.5310 O.3     1  UNL1       -0.2703
      7  P         -7.0520   -4.7910  -19.1820 P.3     1  UNL1        0.2189
      8  O         -8.4350   -4.2640  -18.3620 O.3     1  UNL1       -0.4371
      9  O         -7.3980   -4.9330  -20.6480 O.2     1  UNL1       -0.5170
     10  O         -5.8220   -3.6390  -19.0030 O.3     1  UNL1       -0.3112
     11  C         -6.3700   -2.6400  -18.1920 C.3     1  UNL1        0.1812
     12  C         -6.6400   -1.3800  -19.0010 C.3     1  UNL1        0.1795
     13  C         -5.5240   -0.3840  -18.8350 C.3     1  UNL1        0.1928
     14  C         -6.2210    0.9420  -18.9900 C.3     1  UNL1        0.2543
     15  C         -7.6780    0.6100  -18.7280 C.3     1  UNL1        0.3185
     16  O         -6.0950    1.4390  -20.2920 O.3     1  UNL1       -0.2131
     17  O         -7.8410   -0.7840  -18.5870 O.3     1  UNL1       -0.3136
     18  O         -4.5420   -0.5820  -19.8140 O.3     1  UNL1       -0.2673
     19  P         -3.0660   -0.6500  -18.9800 P.3     1  UNL1        0.5327
     20  O         -1.8010   -0.4280  -20.0800 O.2     1  UNL1       -0.2224
     21  O         -2.9990    0.5730  -17.8100 O.3     1  UNL1       -0.1145
     22  O         -2.9110   -1.9990  -18.3110 O.3     1  UNL1       -0.1145
     23  N         -8.1460    1.3030  -17.5300 N.pl3   1  UNL1       -0.1439
     24  C         -9.1000    2.2370  -17.4510 C.2     1  UNL1        0.3518
     25  N         -9.8400    2.7560  -18.4620 N.2     1  UNL1       -0.0055
     26  C         -9.2590    2.6100  -16.1650 C.2     1  UNL1        0.2526
     27  C        -10.7780    3.7000  -18.1470 C.3     1  UNL1        0.5254
     28  N        -10.9580    4.0960  -16.8450 N.2     1  UNL1        0.0021
     29  C        -10.2110    3.5630  -15.8350 C.2     1  UNL1        0.4393
     30  N        -10.4150    3.9730  -14.4890 N.pl3   1  UNL1        0.2180
     31  N         -8.4160    1.9260  -15.3690 N.2     1  UNL1       -0.2095
     32  C         -7.7440    1.1250  -16.2440 C.3     1  UNL1        0.3377
     33  C         -1.9350   -6.0290  -16.4670 C.3     1  UNL1        0.0645
     34  C         -2.4920   -4.8540  -15.6820 C.3     1  UNL1        0.0056
     35  C         -0.4560   -5.7470  -16.6860 C.3     1  UNL1        0.0056
     36  C         -2.1280   -7.3180  -15.6310 C.3     1  UNL1        0.2312
     37  O         -2.1610   -8.4490  -16.4550 O.3     1  UNL1       -0.2131
     38  C         -1.1310   -7.5110  -14.5150 C.2     1  UNL1        0.2719
     39  N          0.1680   -8.0370  -14.7930 N.am    1  UNL1       -0.2028
     40  O         -1.4620   -7.2450  -13.3280 O.2     1  UNL1       -0.2706
     41  C          1.1780   -8.1700  -13.7530 C.3     1  UNL1        0.1248
     42  C          1.5390   -6.8100  -13.1740 C.3     1  UNL1        0.1102
     43  C          1.7720   -6.8860  -11.7040 C.2     1  UNL1        0.2432
     44  N          3.0290   -7.3550  -11.2160 N.am    1  UNL1       -0.2044
     45  O          0.8750   -6.5050  -10.9030 O.2     1  UNL1       -0.2733
     46  C          3.3140   -7.4920   -9.7940 C.3     1  UNL1        0.1268
     47  C          4.7160   -6.9950   -9.4950 C.3     1  UNL1        0.0814
     48  S          5.8170   -8.3940   -9.1270 S.3     1  UNL1       -0.1287
     49  C          4.8720   -8.8630   -7.6400 C.3     1  UNL1        0.1442
     50  C          5.6930   -8.8080   -6.3870 C.2     1  UNL1        0.2528
     51  N          6.3830   -7.5980   -6.0690 N.am    1  UNL1       -0.1970
     52  O          5.7780   -9.8070   -5.6200 O.2     1  UNL1       -0.2724
     53  C          7.1900   -7.4500   -4.8660 C.3     1  UNL1        0.1745
     54  C          8.2510   -6.3810   -5.0970 C.3     1  UNL1        0.0349
     55  C          9.3610   -6.4780   -4.0620 C.3     1  UNL1        0.0492
     56  C          9.1290   -5.4720   -2.9430 C.3     1  UNL1        0.2205
     57  N          8.4950   -4.2690   -3.4660 N.pl3   1  UNL1       -0.0865
     58  C          8.8240   -3.0680   -3.1070 C.cat   1  UNL1        0.5346
     59  N          9.8480   -2.8440   -2.1430 N.pl3   1  UNL1        0.1354
     60  N          8.1510   -1.9570   -3.6840 N.pl3   1  UNL1        0.1354
     61  C          6.3200   -7.0940   -3.6970 C.2     1  UNL1        0.2806
     62  N          6.1130   -8.0450   -2.6570 N.am    1  UNL1       -0.0863
     63  O          5.7710   -5.9590   -3.6290 O.2     1  UNL1       -0.2698
@<TRIPOS>BOND
     1     9     7    2
     2     4     3    2
     3    16    14    1
     4    20    19    2
     5    18    19    1
     6    18    13    1
     7     7    10    1
     8     7     6    1
     9     7     8    1
    10    10    11    1
    11    12    13    1
    12    12    17    1
    13    12    11    1
    14    14    13    1
    15    14    15    1
    16    19    22    1
    17    19    21    1
    18     3     5    1
    19     3     6    1
    20     3     2    1
    21    15    17    1
    22    15    23    1
    23    25    27    1
    24    25    24    2
    25    27    28    1
    26     1     2    1
    27     1    33    1
    28    23    24    1
    29    23    32    1
    30    24    26    1
    31    28    29    2
    32    35    33    1
    33    33    34    1
    34    33    36    1
    35    37    36    1
    36    32    31    1
    37    26    29    1
    38    26    31    2
    39    29    30    1
    40    36    38    1
    41    39    38   am
    42    39    41    1
    43    38    40    2
    44    41    42    1
    45    42    43    1
    46    43    44   am
    47    43    45    2
    48    44    46    1
    49    46    47    1
    50    47    48    1
    51    48    49    1
    52    49    50    1
    53    50    51   am
    54    50    52    2
    55    51    53    1
    56    54    53    1
    57    54    55    1
    58    53    61    1
    59    55    56    1
    60    61    63    2
    61    61    62   am
    62    60    58    1
    63    57    58    2
    64    57    56    1
    65    58    59    1
@<TRIPOS>MOLECULE
CHEMBL1161857 PubChem-11849527 PubChem-11849528
 63 65 0 0 0
SMALL
GASTEIGER

@<TRIPOS>ATOM
      1  C          3.2620   -7.6410  -12.1810 C.3     1  UNL1        0.1519
      2  O          2.6000   -6.5720  -12.7950 O.3     1  UNL1       -0.3138
      3  P          1.3620   -7.2680  -13.7270 P.3     1  UNL1        0.2188
      4  O          2.0610   -8.0600  -15.0490 O.2     1  UNL1       -0.5170
      5  O          0.6200   -8.2950  -12.9020 O.3     1  UNL1       -0.4371
      6  O          0.2440   -6.0920  -14.2470 O.3     1  UNL1       -0.2703
      7  P         -1.2720   -6.8460  -14.4290 P.3     1  UNL1        0.2189
      8  O         -1.7410   -7.4740  -12.9290 O.3     1  UNL1       -0.4371
      9  O         -1.1820   -7.9930  -15.4120 O.2     1  UNL1       -0.5170
     10  O         -2.4380   -5.7380  -14.9610 O.3     1  UNL1       -0.3112
     11  C         -2.3880   -5.7930  -16.3570 C.3     1  UNL1        0.1812
     12  C         -3.6050   -5.1130  -16.9650 C.3     1  UNL1        0.1795
     13  C         -3.8550   -5.6060  -18.3650 C.3     1  UNL1        0.1928
     14  C         -4.4810   -4.4160  -19.0430 C.3     1  UNL1        0.2543
     15  C         -4.0790   -3.2510  -18.1570 C.3     1  UNL1        0.3185
     16  O         -5.8780   -4.5120  -19.0600 O.3     1  UNL1       -0.2131
     17  O         -3.4180   -3.7230  -17.0040 O.3     1  UNL1       -0.3136
     18  O         -4.7090   -6.7150  -18.3490 O.3     1  UNL1       -0.2673
     19  P         -3.9150   -7.9240  -19.2370 P.3     1  UNL1        0.5327
     20  O         -3.5500   -9.2140  -18.2060 O.3     1  UNL1       -0.1145
     21  O         -4.9140   -8.4820  -20.4850 O.2     1  UNL1       -0.2224
     22  O         -2.6310   -7.3770  -19.8220 O.3     1  UNL1       -0.1145
     23  N         -3.2200   -2.3290  -18.8970 N.pl3   1  UNL1       -0.1439
     24  C         -3.0490   -1.0210  -18.6750 C.2     1  UNL1        0.3518
     25  N         -3.6380   -0.2560  -17.7220 N.2     1  UNL1       -0.0055
     26  C         -2.1530   -0.5290  -19.5540 C.2     1  UNL1        0.2526
     27  C         -3.3020    1.0680  -17.6680 C.3     1  UNL1        0.5254
     28  N         -2.3920    1.5920  -18.5520 N.2     1  UNL1        0.0021
     29  C         -1.8020    0.8120  -19.5040 C.2     1  UNL1        0.4393
     30  N         -0.8520    1.3640  -20.4070 N.pl3   1  UNL1        0.2180
     31  N         -1.7110   -1.5030  -20.3700 N.2     1  UNL1       -0.2095
     32  C         -2.3890   -2.6030  -19.9360 C.3     1  UNL1        0.3377
     33  C          4.5710   -7.1960  -11.5180 C.3     1  UNL1        0.0645
     34  C          4.8400   -5.7690  -11.9640 C.3     1  UNL1        0.0056
     35  C          5.7360   -8.0380  -12.0160 C.3     1  UNL1        0.0056
     36  C          4.4960   -7.2240   -9.9720 C.3     1  UNL1        0.2312
     37  O          3.1880   -6.9980   -9.5280 O.3     1  UNL1       -0.2131
     38  C          5.0610   -8.4670   -9.3280 C.2     1  UNL1        0.2719
     39  N          4.3190   -9.6880   -9.3470 N.am    1  UNL1       -0.2028
     40  O          6.1730   -8.4150   -8.7360 O.2     1  UNL1       -0.2706
     41  C          4.8630  -10.9220   -8.7980 C.3     1  UNL1        0.1248
     42  C          4.0420  -11.3880   -7.6050 C.3     1  UNL1        0.1102
     43  C          4.7750  -11.1830   -6.3240 C.2     1  UNL1        0.2432
     44  N          5.1350   -9.8600   -5.9260 N.am    1  UNL1       -0.2044
     45  O          5.0420  -12.1700   -5.5850 O.2     1  UNL1       -0.2733
     46  C          5.8850   -9.5870   -4.7070 C.3     1  UNL1        0.1268
     47  C          7.3410   -9.3210   -5.0420 C.3     1  UNL1        0.0814
     48  S          8.1940   -8.5890   -3.6140 S.3     1  UNL1       -0.1287
     49  C          7.9930   -6.8910   -4.2500 C.3     1  UNL1        0.1442
     50  C          8.8210   -5.8880   -3.5060 C.2     1  UNL1        0.2528
     51  N          9.1820   -4.6710   -4.1640 N.am    1  UNL1       -0.1970
     52  O          9.1950   -6.1030   -2.3200 O.2     1  UNL1       -0.2724
     53  C          9.9710   -3.6340   -3.5130 C.3     1  UNL1        0.1745
     54  C         10.8260   -2.9220   -4.5530 C.3     1  UNL1        0.0349
     55  C         10.3870   -3.2840   -5.9640 C.3     1  UNL1        0.0492
     56  C         10.3990   -2.0510   -6.8550 C.3     1  UNL1        0.2205
     57  N          9.3350   -1.1340   -6.4680 N.pl3   1  UNL1       -0.0865
     58  C          9.0430   -0.0530   -7.1210 C.cat   1  UNL1        0.5346
     59  N          9.7740    0.3220   -8.2840 N.pl3   1  UNL1        0.1354
     60  N          7.9780    0.7710   -6.6670 N.pl3   1  UNL1        0.1354
     61  C          9.0700   -2.6640   -2.8060 C.2     1  UNL1        0.2806
     62  N          8.0060   -2.0420   -3.5190 N.am    1  UNL1       -0.0863
     63  O          9.2490   -2.3970   -1.5850 O.2     1  UNL1       -0.2698
@<TRIPOS>BOND
     1    21    19    2
     2    30    29    1
     3    31    32    1
     4    31    26    2
     5    32    23    1
     6    22    19    1
     7    26    29    1
     8    26    24    1
     9    29    28    2
    10    19    18    1
    11    19    20    1
    12    16    14    1
    13    14    13    1
    14    14    15    1
    15    23    24    1
    16    23    15    1
    17    24    25    2
    18    28    27    1
    19    13    18    1
    20    13    12    1
    21    15    17    1
    22    25    27    1
    23    17    12    1
    24    12    11    1
    25    11    10    1
    26     9     7    2
    27     4     3    2
    28    10     7    1
    29     7     6    1
    30     7     8    1
    31     6     3    1
    32     3     5    1
    33     3     2    1
    34     2     1    1
    35     1    33    1
    36    35    33    1
    37    34    33    1
    38    33    36    1
    39    36    37    1
    40    36    38    1
    41    39    38   am
    42    39    41    1
    43    38    40    2
    44    41    42    1
    45    59    58    1
    46    42    43    1
    47    58    60    1
    48    58    57    2
    49    56    57    1
    50    56    55    1
    51    43    44   am
    52    43    45    2
    53    55    54    1
    54    44    46    1
    55    47    46    1
    56    47    48    1
    57    54    53    1
    58    49    48    1
    59    49    50    1
    60    51    53    1
    61    51    50   am
    62    62    61   am
    63    53    61    1
    64    50    52    2
    65    61    63    2
@<TRIPOS>MOLECULE
CHEMBL1794644_positive
 70 72 0 0 0
SMALL
GASTEIGER

@<TRIPOS>ATOM
      1  P         -5.9970   -6.0510  -19.2190 P.3     1  UNL1        0.4841
      2  O         -6.4470   -6.9520  -18.1290 O.2     1  UNL1       -0.2269
      3  O         -5.4680   -6.7930  -20.5500 O.3     1  UNL1       -0.2729
      4  C         -5.1590   -8.1970  -20.5170 C.3     1  UNL1        0.1563
      5  C         -3.7620   -8.4530  -21.1560 C.3     1  UNL1        0.0612
      6  C         -3.5370   -9.9830  -21.3170 C.3     1  UNL1        0.0054
      7  C         -3.7030   -7.8030  -22.5680 C.3     1  UNL1        0.0054
      8  C         -2.6270   -7.8440  -20.2670 C.3     1  UNL1        0.1887
      9  O         -2.5040   -6.4300  -20.4630 O.3     1  UNL1       -0.3757
     10  H         -2.7910   -6.2450  -21.3780 H       1  UNL1        0.2110
     11  C         -2.8050   -8.1120  -18.7600 C.2     1  UNL1        0.2494
     12  O         -3.2270   -9.1720  -18.3280 O.2     1  UNL1       -0.2725
     13  N         -2.4350   -7.0700  -17.9250 N.am    1  UNL1       -0.3019
     14  H         -2.0960   -6.2150  -18.3460 H       1  UNL1        0.1495
     15  C         -2.4540   -7.1800  -16.4610 C.3     1  UNL1        0.0990
     16  C         -1.1030   -7.6630  -15.8970 C.3     1  UNL1        0.1062
     17  C         -0.9460   -7.3360  -14.4090 C.2     1  UNL1        0.2242
     18  O         -1.8840   -6.9970  -13.7100 O.2     1  UNL1       -0.2750
     19  N          0.3280   -7.5180  -13.9020 N.am    1  UNL1       -0.3034
     20  H          1.0580   -7.8230  -14.5340 H       1  UNL1        0.1495
     21  C          0.6420   -7.4030  -12.4730 C.3     1  UNL1        0.1014
     22  C          2.1530   -7.2500  -12.2330 C.3     1  UNL1        0.0861
     23  S          2.5420   -5.5660  -11.5940 S.3     1  UNL1       -0.0753
     24  C          3.5100   -5.9770  -10.1270 C.2     1  UNL1        0.2011
     25  O          4.0880   -5.1350   -9.4610 O.2     1  UNL1       -0.2844
     26  C          3.5310   -7.4820   -9.8230 C.3     1  UNL1        0.1032
     27  C          4.9430   -8.1270   -9.7060 C.3     1  UNL1        0.1068
     28  C          5.6450   -8.0490  -11.0860 C.3     1  UNL1        0.0304
     29  O          5.7300   -7.3670   -8.7880 O.3     1  UNL1       -0.3857
     30  H          5.1340   -6.7370   -8.3390 H       1  UNL1        0.2103
     31  C          4.8460   -9.6050   -9.2220 C.3     1  UNL1        0.1366
     32  C          5.5180   -9.8620   -7.8700 C.2     1  UNL1        0.3162
     33  O          6.6880  -10.1700   -7.7360 O.2     1  UNL1       -0.2502
     34  O          4.7560   -9.5400   -6.8040 O.3     1  UNL1       -0.4801
     35  H          3.8650   -9.8600   -7.0300 H       1  UNL1        0.2951
     36  O         -4.7760   -5.0530  -18.9010 O.3     1  UNL1       -0.3022
     37  H         -4.1290   -5.5190  -18.3470 H       1  UNL1        0.2220
     38  O         -7.1020   -5.0540  -19.8290 O.3     1  UNL1       -0.1860
     39  P         -6.8700   -3.5030  -20.1770 P.3     1  UNL1        0.4842
     40  O         -5.6800   -3.2010  -21.0120 O.2     1  UNL1       -0.2269
     41  O         -6.9170   -2.8180  -18.7120 O.3     1  UNL1       -0.2703
     42  C         -7.7930   -1.7170  -18.3950 C.3     1  UNL1        0.1857
     43  C         -7.2990   -0.9070  -17.1680 C.3     1  UNL1        0.1795
     44  C         -7.3280    0.6140  -17.4220 C.3     1  UNL1        0.1891
     45  C         -5.9840    0.8800  -18.1160 C.3     1  UNL1        0.2144
     46  C         -5.0390   -0.1780  -17.5150 C.3     1  UNL1        0.3149
     47  O         -5.8980   -1.1990  -16.9600 O.3     1  UNL1       -0.3137
     48  O         -7.3830    1.3150  -16.1600 O.3     1  UNL1       -0.2706
     49  P         -8.4640    2.4820  -15.8880 P.3     1  UNL1        0.4732
     50  O         -8.9260    2.6950  -14.4940 O.2     1  UNL1       -0.2275
     51  O         -9.5940    2.1300  -16.9730 O.3     1  UNL1       -0.3026
     52  H        -10.2560    1.5560  -16.5510 H       1  UNL1        0.2220
     53  O         -7.7630    3.7530  -16.5730 O.3     1  UNL1       -0.3026
     54  H         -6.8630    3.5050  -16.8450 H       1  UNL1        0.2220
     55  O         -5.5110    2.2180  -17.9380 O.3     1  UNL1       -0.3763
     56  H         -6.1440    2.6770  -17.3560 H       1  UNL1        0.2107
     57  N         -4.1170   -0.7720  -18.4900 N.pl3   1  UNL1       -0.1440
     58  C         -3.8400   -0.3960  -19.7960 C.3     1  UNL1        0.3377
     59  N         -2.9300   -1.1840  -20.4750 N.2     1  UNL1       -0.2098
     60  C         -2.6540   -2.0950  -19.5060 C.2     1  UNL1        0.2438
     61  C         -3.3390   -1.8890  -18.3130 C.2     1  UNL1        0.3515
     62  C         -1.7740   -3.1890  -19.5930 C.2     1  UNL1        0.3428
     63  N         -3.1790   -2.6980  -17.2470 N.2     1  UNL1       -0.0055
     64  C         -2.3150   -3.7250  -17.4180 C.3     1  UNL1        0.5252
     65  N         -1.6070   -4.0110  -18.5350 N.2     1  UNL1       -0.0059
     66  N         -1.0450   -3.4860  -20.7340 N.pl3   1  UNL1       -0.2449
     67  H         -0.5600   -2.7360  -21.2080 H       1  UNL1        0.2885
     68  H         -1.2630   -4.3320  -21.2440 H       1  UNL1        0.2885
     69  O         -8.2960   -3.1010  -20.8020 O.3     1  UNL1       -0.3022
     70  H         -8.7030   -3.8940  -21.1880 H       1  UNL1        0.2220
@<TRIPOS>BOND
     1     7     5    1
     2    10     9    1
     3     6     5    1
     4    68    66    1
     5    67    66    1
     6    70    69    1
     7     5     4    1
     8     5     8    1
     9    40    39    2
    10    69    39    1
    11    66    62    1
    12     3     4    1
    13     3     1    1
    14    59    58    1
    15    59    60    2
    16     9     8    1
    17     8    11    1
    18    39    38    1
    19    39    41    1
    20    38     1    1
    21    58    57    1
    22    62    60    1
    23    62    65    2
    24    60    61    1
    25     1    36    1
    26     1     2    2
    27    36    37    1
    28    11    12    2
    29    11    13   am
    30    41    42    1
    31    65    64    1
    32    57    61    1
    33    57    46    1
    34    42    43    1
    35    14    13    1
    36    61    63    2
    37    45    55    1
    38    45    46    1
    39    45    44    1
    40    55    56    1
    41    13    15    1
    42    46    47    1
    43    44    43    1
    44    44    48    1
    45    64    63    1
    46    43    47    1
    47    51    52    1
    48    51    49    1
    49    54    53    1
    50    53    49    1
    51    15    16    1
    52    48    49    1
    53    16    17    1
    54    49    50    2
    55    20    19    1
    56    17    19   am
    57    17    18    2
    58    19    21    1
    59    21    22    1
    60    22    23    1
    61    23    24    1
    62    28    27    1
    63    24    26    1
    64    24    25    2
    65    26    27    1
    66    27    31    1
    67    27    29    1
    68    31    32    1
    69    29    30    1
    70    32    33    2
    71    32    34    1
    72    35    34    1
@<TRIPOS>MOLECULE
CHEMBL1794644_positive
 70 72 0 0 0
SMALL
GASTEIGER

@<TRIPOS>ATOM
      1  P         -5.8240   -5.9490  -18.9020 P.3     1  UNL1        0.4841
      2  O         -5.7120   -6.1710  -20.3660 O.2     1  UNL1       -0.2269
      3  O         -4.4730   -6.2120  -18.0620 O.3     1  UNL1       -0.2729
      4  C         -3.6200   -5.1100  -17.7050 C.3     1  UNL1        0.1563
      5  C         -2.2690   -5.6390  -17.1400 C.3     1  UNL1        0.0612
      6  C         -1.2210   -5.7150  -18.2850 C.3     1  UNL1        0.0054
      7  C         -1.7330   -4.6600  -16.0560 C.3     1  UNL1        0.0054
      8  C         -2.4550   -7.0550  -16.4990 C.3     1  UNL1        0.1887
      9  O         -2.2070   -8.1000  -17.4480 O.3     1  UNL1       -0.3757
     10  H         -1.3790   -8.5400  -17.1750 H       1  UNL1        0.2110
     11  C         -1.5680   -7.3000  -15.2640 C.2     1  UNL1        0.2494
     12  O         -1.9460   -7.0650  -14.1280 O.2     1  UNL1       -0.2725
     13  N         -0.3140   -7.8250  -15.5290 N.am    1  UNL1       -0.3019
     14  H         -0.0590   -7.9950  -16.4930 H       1  UNL1        0.1495
     15  C          0.6300   -8.2040  -14.4690 C.3     1  UNL1        0.0990
     16  C          1.5660   -7.0420  -14.0810 C.3     1  UNL1        0.1062
     17  C          1.4210   -6.6490  -12.6080 C.2     1  UNL1        0.2242
     18  O          0.5890   -7.1510  -11.8740 O.2     1  UNL1       -0.2750
     19  N          2.3500   -5.7300  -12.1540 N.am    1  UNL1       -0.3034
     20  H          3.0290   -5.3680  -12.8130 H       1  UNL1        0.1495
     21  C          2.4680   -5.3450  -10.7430 C.3     1  UNL1        0.1014
     22  C          3.8560   -5.6870  -10.1750 C.3     1  UNL1        0.0861
     23  S          4.3420   -7.4030  -10.6360 S.3     1  UNL1       -0.0753
     24  C          4.7830   -8.0740   -9.0190 C.2     1  UNL1        0.2011
     25  O          4.3460   -7.6210   -7.9750 O.2     1  UNL1       -0.2844
     26  C          5.7610   -9.2550   -9.1040 C.3     1  UNL1        0.1032
     27  C          6.8120   -9.3430   -7.9590 C.3     1  UNL1        0.1068
     28  C          8.1820   -9.7420   -8.5660 C.3     1  UNL1        0.0304
     29  O          6.9710   -8.0520   -7.3690 O.3     1  UNL1       -0.3857
     30  H          6.4170   -7.4260   -7.8740 H       1  UNL1        0.2103
     31  C          6.3720  -10.3700   -6.8730 C.3     1  UNL1        0.1366
     32  C          5.5930   -9.7490   -5.7090 C.2     1  UNL1        0.3162
     33  O          6.0820   -9.0060   -4.8790 O.2     1  UNL1       -0.2502
     34  O          4.2590   -9.9420   -5.7720 O.3     1  UNL1       -0.4801
     35  H          4.0250  -10.3440   -4.9170 H       1  UNL1        0.2951
     36  O         -6.8850   -6.8470  -18.0940 O.3     1  UNL1       -0.3022
     37  H         -7.5460   -6.2610  -17.6900 H       1  UNL1        0.2220
     38  O         -6.2070   -4.4600  -18.4290 O.3     1  UNL1       -0.1860
     39  P         -7.5410   -3.6640  -18.8390 P.3     1  UNL1        0.4842
     40  O         -7.5640   -3.1140  -20.2180 O.2     1  UNL1       -0.2269
     41  O         -7.6780   -2.5940  -17.6330 O.3     1  UNL1       -0.2703
     42  C         -8.0410   -1.2150  -17.8530 C.3     1  UNL1        0.1857
     43  C         -7.5580   -0.2900  -16.7050 C.3     1  UNL1        0.1795
     44  C         -7.7380    1.2050  -17.0450 C.3     1  UNL1        0.1891
     45  C         -6.4630    1.5430  -17.8300 C.3     1  UNL1        0.2144
     46  C         -5.3950    0.6110  -17.2250 C.3     1  UNL1        0.3149
     47  O         -6.1270   -0.4440  -16.5640 O.3     1  UNL1       -0.3137
     48  O         -7.7900    1.9750  -15.8240 O.3     1  UNL1       -0.2706
     49  P         -8.8740    3.1520  -15.6120 P.3     1  UNL1        0.4732
     50  O        -10.1070    3.1220  -16.4360 O.2     1  UNL1       -0.2275
     51  O         -7.9530    4.4610  -15.7420 O.3     1  UNL1       -0.3026
     52  H         -7.6340    4.7000  -14.8560 H       1  UNL1        0.2220
     53  O         -9.1160    3.1010  -14.0260 O.3     1  UNL1       -0.3026
     54  H         -9.9730    2.6780  -13.8540 H       1  UNL1        0.2220
     55  O         -6.1040    2.9260  -17.7570 O.3     1  UNL1       -0.3763
     56  H         -5.8520    3.2110  -18.6540 H       1  UNL1        0.2107
     57  N         -4.4760    0.0400  -18.2170 N.pl3   1  UNL1       -0.1440
     58  C         -4.6170   -1.0840  -19.0170 C.3     1  UNL1        0.3377
     59  N         -3.5480   -1.3800  -19.8420 N.2     1  UNL1       -0.2098
     60  C         -2.7130   -0.3660  -19.5010 C.2     1  UNL1        0.2438
     61  C         -3.2230    0.4990  -18.5380 C.2     1  UNL1        0.3515
     62  C         -1.4250   -0.1170  -20.0100 C.2     1  UNL1        0.3428
     63  N         -2.5260    1.5610  -18.0880 N.2     1  UNL1       -0.0055
     64  C         -1.2970    1.7250  -18.6300 C.3     1  UNL1        0.5252
     65  N         -0.7130    0.9410  -19.5660 N.2     1  UNL1       -0.0059
     66  N         -0.8220   -0.9150  -20.9690 N.pl3   1  UNL1       -0.2449
     67  H         -0.4350   -0.4760  -21.7930 H       1  UNL1        0.2885
     68  H         -1.0570   -1.8990  -21.0000 H       1  UNL1        0.2885
     69  O         -8.6770   -4.7440  -18.4850 O.3     1  UNL1       -0.3022
     70  H         -9.2430   -4.3840  -17.7830 H       1  UNL1        0.2220
@<TRIPOS>BOND
     1    67    66    1
     2    68    66    1
     3    66    62    1
     4     2     1    2
     5    40    39    2
     6    62    65    2
     7    62    60    1
     8    59    60    2
     9    59    58    1
    10    65    64    1
    11    60    61    1
    12    58    57    1
    13     1    38    1
    14     1    36    1
    15     1     3    1
    16    39    69    1
    17    39    38    1
    18    39    41    1
    19    56    55    1
    20    64    63    1
    21    61    57    1
    22    61    63    2
    23    69    70    1
    24     6     5    1
    25    57    46    1
    26    36    37    1
    27     3     4    1
    28    42    41    1
    29    42    43    1
    30    45    55    1
    31    45    46    1
    32    45    44    1
    33     4     5    1
    34     9    10    1
    35     9     8    1
    36    46    47    1
    37     5     8    1
    38     5     7    1
    39    44    43    1
    40    44    48    1
    41    43    47    1
    42     8    11    1
    43    14    13    1
    44    50    49    2
    45    48    49    1
    46    51    49    1
    47    51    52    1
    48    49    53    1
    49    13    11   am
    50    13    15    1
    51    11    12    2
    52    15    16    1
    53    16    17    1
    54    53    54    1
    55    20    19    1
    56    17    19   am
    57    17    18    2
    58    19    21    1
    59    21    22    1
    60    23    22    1
    61    23    24    1
    62    26    24    1
    63    26    27    1
    64    24    25    2
    65    28    27    1
    66    27    29    1
    67    27    31    1
    68    30    29    1
    69    31    32    1
    70    34    32    1
    71    34    35    1
    72    32    33    2
@<TRIPOS>MOLECULE
CHEMBL1794644_positive
 70 72 0 0 0
SMALL
GASTEIGER

@<TRIPOS>ATOM
      1  P         -6.0910   -6.0580  -19.2180 P.3     1  UNL1        0.4841
      2  O         -6.6010   -6.9280  -18.1280 O.2     1  UNL1       -0.2269
      3  O         -5.4820   -6.8370  -20.4920 O.3     1  UNL1       -0.2729
      4  C         -5.2540   -8.2550  -20.4270 C.3     1  UNL1        0.1563
      5  C         -3.8600   -8.6010  -21.0280 C.3     1  UNL1        0.0612
      6  C         -3.6900  -10.1450  -21.0910 C.3     1  UNL1        0.0054
      7  C         -3.7580   -8.0420  -22.4770 C.3     1  UNL1        0.0054
      8  C         -2.7140   -7.9790  -20.1620 C.3     1  UNL1        0.1887
      9  O         -2.6390   -6.5590  -20.3260 O.3     1  UNL1       -0.3757
     10  H         -1.9350   -6.3850  -20.9810 H       1  UNL1        0.2110
     11  C         -2.8330   -8.2890  -18.6570 C.2     1  UNL1        0.2494
     12  O         -3.4800   -9.2330  -18.2310 O.2     1  UNL1       -0.2725
     13  N         -2.1400   -7.4320  -17.8190 N.am    1  UNL1       -0.3019
     14  H         -1.6250   -6.6660  -18.2340 H       1  UNL1        0.1495
     15  C         -2.0690   -7.6270  -16.3650 C.3     1  UNL1        0.0990
     16  C         -0.7280   -7.1430  -15.7790 C.3     1  UNL1        0.1062
     17  C         -0.7360   -7.1300  -14.2470 C.2     1  UNL1        0.2242
     18  O         -1.7660   -7.1050  -13.5970 O.2     1  UNL1       -0.2750
     19  N          0.5120   -7.2170  -13.6550 N.am    1  UNL1       -0.3034
     20  H          1.3260   -7.2560  -14.2550 H       1  UNL1        0.1495
     21  C          0.6990   -7.3710  -12.2080 C.3     1  UNL1        0.1014
     22  C          1.9790   -6.6710  -11.7220 C.3     1  UNL1        0.0861
     23  S          2.8590   -7.7150  -10.4840 S.3     1  UNL1       -0.0753
     24  C          4.5780   -7.3510  -10.8990 C.2     1  UNL1        0.2011
     25  O          5.5100   -7.6490  -10.1710 O.2     1  UNL1       -0.2844
     26  C          4.7320   -6.6310  -12.2470 C.3     1  UNL1        0.1032
     27  C          5.5550   -7.3920  -13.3280 C.3     1  UNL1        0.1068
     28  C          6.8830   -6.6310  -13.5740 C.3     1  UNL1        0.0304
     29  O          5.8960   -8.6870  -12.8300 O.3     1  UNL1       -0.3857
     30  H          6.3530   -9.1680  -13.5460 H       1  UNL1        0.2103
     31  C          4.7460   -7.5310  -14.6520 C.3     1  UNL1        0.1366
     32  C          5.4980   -8.2650  -15.7670 C.2     1  UNL1        0.3162
     33  O          5.9910   -7.7170  -16.7350 O.2     1  UNL1       -0.2502
     34  O          5.7400   -9.5670  -15.5050 O.3     1  UNL1       -0.4801
     35  H          5.9750   -9.9540  -16.3660 H       1  UNL1        0.2951
     36  O         -4.8960   -5.0430  -18.8600 O.3     1  UNL1       -0.3022
     37  H         -5.1340   -4.5530  -18.0560 H       1  UNL1        0.2220
     38  O         -7.1630   -5.0870  -19.9220 O.3     1  UNL1       -0.1860
     39  P         -6.9400   -3.5290  -20.2480 P.3     1  UNL1        0.4842
     40  O         -5.7140   -3.2020  -21.0180 O.2     1  UNL1       -0.2269
     41  O         -7.0730   -2.8560  -18.7830 O.3     1  UNL1       -0.2703
     42  C         -7.8180   -1.6440  -18.5480 C.3     1  UNL1        0.1857
     43  C         -7.3620   -0.9150  -17.2560 C.3     1  UNL1        0.1795
     44  C         -7.2720    0.6130  -17.4490 C.3     1  UNL1        0.1891
     45  C         -5.8670    0.8110  -18.0350 C.3     1  UNL1        0.2144
     46  C         -5.0400   -0.3310  -17.4130 C.3     1  UNL1        0.3149
     47  O         -6.0030   -1.3100  -16.9630 O.3     1  UNL1       -0.3137
     48  O         -7.3740    1.2690  -16.1660 O.3     1  UNL1       -0.2706
     49  P         -8.4390    2.4520  -15.9030 P.3     1  UNL1        0.4732
     50  O         -8.8790    2.6990  -14.5080 O.2     1  UNL1       -0.2275
     51  O         -9.5880    2.0900  -16.9650 O.3     1  UNL1       -0.3026
     52  H        -10.1820    1.4350  -16.5620 H       1  UNL1        0.2220
     53  O         -7.7350    3.7020  -16.6240 O.3     1  UNL1       -0.3026
     54  H         -6.8300    3.7900  -16.2820 H       1  UNL1        0.2220
     55  O         -5.3210    2.1060  -17.7680 O.3     1  UNL1       -0.3763
     56  H         -5.7980    2.7460  -18.3280 H       1  UNL1        0.2107
     57  N         -4.0900   -0.9510  -18.3440 N.pl3   1  UNL1       -0.1440
     58  C         -3.7440   -0.5840  -19.6370 C.3     1  UNL1        0.3377
     59  N         -2.8250   -1.3970  -20.2730 N.2     1  UNL1       -0.2098
     60  C         -2.6180   -2.3130  -19.2920 C.2     1  UNL1        0.2438
     61  C         -3.3510   -2.0870  -18.1310 C.2     1  UNL1        0.3515
     62  C         -1.7640   -3.4310  -19.3380 C.2     1  UNL1        0.3428
     63  N         -3.2620   -2.8990  -17.0590 N.2     1  UNL1       -0.0055
     64  C         -2.4190   -3.9490  -17.1900 C.3     1  UNL1        0.5252
     65  N         -1.6680   -4.2550  -18.2730 N.2     1  UNL1       -0.0059
     66  N         -0.9920   -3.7480  -20.4440 N.pl3   1  UNL1       -0.2449
     67  H         -1.0140   -3.1310  -21.2440 H       1  UNL1        0.2885
     68  H         -0.6930   -4.7070  -20.5690 H       1  UNL1        0.2885
     69  O         -8.3390   -3.1470  -20.9420 O.3     1  UNL1       -0.3022
     70  H         -8.1670   -2.8580  -21.8520 H       1  UNL1        0.2220
@<TRIPOS>BOND
     1     7     5    1
     2    70    69    1
     3    67    66    1
     4     6     5    1
     5     5     4    1
     6     5     8    1
     7    40    39    2
     8    10     9    1
     9    69    39    1
    10    68    66    1
    11     3     4    1
    12     3     1    1
    13    66    62    1
    14     9     8    1
    15    59    58    1
    16    59    60    2
    17    39    38    1
    18    39    41    1
    19     8    11    1
    20    38     1    1
    21    58    57    1
    22    62    60    1
    23    62    65    2
    24    60    61    1
    25     1    36    1
    26     1     2    2
    27    36    37    1
    28    41    42    1
    29    11    12    2
    30    11    13   am
    31    42    43    1
    32    57    61    1
    33    57    46    1
    34    56    55    1
    35    65    64    1
    36    14    13    1
    37    61    63    2
    38    45    55    1
    39    45    44    1
    40    45    46    1
    41    13    15    1
    42    44    43    1
    43    44    48    1
    44    46    47    1
    45    43    47    1
    46    64    63    1
    47    51    52    1
    48    51    49    1
    49    33    32    2
    50    53    54    1
    51    53    49    1
    52    35    34    1
    53    15    16    1
    54    48    49    1
    55    49    50    2
    56    16    17    1
    57    32    34    1
    58    32    31    1
    59    31    27    1
    60    20    19    1
    61    17    19   am
    62    17    18    2
    63    19    21    1
    64    28    27    1
    65    30    29    1
    66    27    29    1
    67    27    26    1
    68    26    24    1
    69    21    22    1
    70    22    23    1
    71    24    23    1
    72    24    25    2
@<TRIPOS>MOLECULE
CHEMBL1949897 PubChem-440615
 59 61 0 0 0
SMALL
GASTEIGER

@<TRIPOS>ATOM
      1  O         -6.2600   -6.9330  -18.4460 O.3     1  UNL1       -0.4371
      2  O         -3.9680   -6.8060  -19.6590 O.2     1  UNL1       -0.5170
      3  P         -5.2340   -5.9440  -18.9490 P.3     1  UNL1        0.2188
      4  O         -4.6160   -5.0620  -17.6380 O.3     1  UNL1       -0.3138
      5  C         -3.3540   -5.6110  -17.3730 C.3     1  UNL1        0.1519
      6  C         -2.3140   -4.5070  -17.1920 C.3     1  UNL1        0.0645
      7  C         -1.3070   -4.5990  -18.3300 C.3     1  UNL1        0.0056
      8  C         -3.0050   -3.1520  -17.2910 C.3     1  UNL1        0.0056
      9  C         -1.6220   -4.6550  -15.8210 C.3     1  UNL1        0.2312
     10  O         -0.3160   -4.1560  -15.8450 O.3     1  UNL1       -0.2131
     11  C         -1.6360   -6.0590  -15.2880 C.2     1  UNL1        0.2719
     12  N         -0.7300   -7.0300  -15.8170 N.am    1  UNL1       -0.2028
     13  O         -2.4620   -6.3740  -14.3920 O.2     1  UNL1       -0.2706
     14  C         -0.6540   -8.4100  -15.3490 C.3     1  UNL1        0.1248
     15  C          0.7890   -8.8420  -15.1150 C.3     1  UNL1        0.1102
     16  C          1.5960   -7.7650  -14.4700 C.2     1  UNL1        0.2432
     17  N          1.2180   -7.2930  -13.1770 N.am    1  UNL1       -0.2044
     18  O          2.5990   -7.2830  -15.0640 O.2     1  UNL1       -0.2733
     19  C          1.8780   -6.1650  -12.5440 C.3     1  UNL1        0.1272
     20  C          1.9710   -6.3980  -11.0450 C.3     1  UNL1        0.0883
     21  S          3.5130   -5.6830  -10.3900 S.3     1  UNL1       -0.0753
     22  C          4.0420   -7.2380   -9.6770 C.2     1  UNL1        0.1988
     23  O          4.0860   -7.3660   -8.4650 O.2     1  UNL1       -0.2845
     24  C          4.4380   -8.3670  -10.5650 C.3     1  UNL1        0.0759
     25  C          5.5150   -9.2030   -9.9030 C.3     1  UNL1        0.0087
     26  C          6.0350  -10.2430  -10.8730 C.3     1  UNL1        0.0005
     27  C          7.5550  -10.2710  -10.8380 C.3     1  UNL1        0.0000
     28  C          8.1040   -8.8910  -11.1120 C.3     1  UNL1        0.0000
     29  C          8.6560   -8.8100  -12.5280 C.3     1  UNL1        0.0000
     30  C          7.5800   -8.3810  -13.5190 C.3     1  UNL1        0.0000
     31  C          7.2480   -6.9010  -13.3870 C.3     1  UNL1        0.0000
     32  C          5.7460   -6.6870  -13.4120 C.3     1  UNL1        0.0000
     33  O         -5.9260   -4.9260  -20.1270 O.3     1  UNL1       -0.2703
     34  P         -7.1660   -4.0260  -19.3860 P.3     1  UNL1        0.2189
     35  O         -8.0810   -5.0200  -18.3640 O.3     1  UNL1       -0.4371
     36  O         -8.0680   -3.4810  -20.4770 O.2     1  UNL1       -0.5170
     37  O         -6.5130   -2.7350  -18.4970 O.3     1  UNL1       -0.3112
     38  C         -7.5500   -2.2460  -17.7010 C.3     1  UNL1        0.1812
     39  C         -7.1920   -0.8600  -17.1970 C.3     1  UNL1        0.1795
     40  C         -7.5670    0.1740  -18.2240 C.3     1  UNL1        0.1928
     41  C         -6.5600    1.2640  -17.9830 C.3     1  UNL1        0.2543
     42  C         -5.4000    0.5170  -17.3560 C.3     1  UNL1        0.3185
     43  O         -7.0410    2.1990  -17.0610 O.3     1  UNL1       -0.2131
     44  O         -5.8080   -0.7750  -16.9640 O.3     1  UNL1       -0.3136
     45  O         -8.8800    0.6170  -18.0290 O.3     1  UNL1       -0.2673
     46  P         -9.5340    0.7950  -19.5860 P.3     1  UNL1        0.5327
     47  O         -9.1930    2.3450  -20.1770 O.3     1  UNL1       -0.1145
     48  O        -11.2100    0.5600  -19.5460 O.3     1  UNL1       -0.1145
     49  O         -8.9120   -0.2310  -20.5030 O.2     1  UNL1       -0.2224
     50  N         -4.2900    0.4190  -18.2940 N.pl3   1  UNL1       -0.1439
     51  C         -3.1280    1.0750  -18.2480 C.2     1  UNL1        0.3518
     52  N         -2.7210    1.9860  -17.3290 N.2     1  UNL1       -0.0055
     53  C         -2.3550    0.6880  -19.2830 C.2     1  UNL1        0.2526
     54  C         -1.4740    2.5290  -17.4770 C.3     1  UNL1        0.5254
     55  N         -0.6710    2.1530  -18.5230 N.2     1  UNL1        0.0021
     56  C         -1.0890    1.2330  -19.4420 C.2     1  UNL1        0.4393
     57  N         -0.2450    0.8480  -20.5200 N.pl3   1  UNL1        0.2180
     58  N         -2.9970   -0.2310  -20.0300 N.2     1  UNL1       -0.2095
     59  C         -4.1910   -0.3780  -19.3910 C.3     1  UNL1        0.3377
@<TRIPOS>BOND
     1    57    56    1
     2    49    46    2
     3    36    34    2
     4    47    46    1
     5    33    34    1
     6    33     3    1
     7    58    59    1
     8    58    53    2
     9     2     3    2
    10    46    48    1
    11    46    45    1
    12    56    53    1
    13    56    55    2
    14    59    50    1
    15    34    37    1
    16    34    35    1
    17    53    51    1
    18     3     1    1
    19     3     4    1
    20    55    54    1
    21    37    38    1
    22     7     6    1
    23    50    51    1
    24    50    42    1
    25    51    52    2
    26    40    45    1
    27    40    41    1
    28    40    39    1
    29    41    42    1
    30    41    43    1
    31    38    39    1
    32     4     5    1
    33    54    52    1
    34     5     6    1
    35    42    44    1
    36     8     6    1
    37    39    44    1
    38     6     9    1
    39    10     9    1
    40     9    11    1
    41    12    14    1
    42    12    11   am
    43    14    15    1
    44    11    13    2
    45    15    16    1
    46    18    16    2
    47    16    17   am
    48    30    31    1
    49    30    29    1
    50    32    31    1
    51    17    19    1
    52    19    20    1
    53    29    28    1
    54    28    27    1
    55    20    21    1
    56    26    27    1
    57    26    25    1
    58    24    25    1
    59    24    22    1
    60    21    22    1
    61    22    23    2
@<TRIPOS>MOLECULE
CHEMBL1949897 PubChem-440615
 59 61 0 0 0
SMALL
GASTEIGER

@<TRIPOS>ATOM
      1  O         -2.7930   -8.9900  -17.8270 O.3     1  UNL1       -0.4371
      2  O         -2.7970   -7.6920  -20.0760 O.2     1  UNL1       -0.5170
      3  P         -3.2850   -7.7090  -18.4600 P.3     1  UNL1        0.2188
      4  O         -2.5770   -6.3860  -17.6690 O.3     1  UNL1       -0.3138
      5  C         -1.4550   -6.8980  -17.0030 C.3     1  UNL1        0.1519
      6  C         -1.3210   -6.2760  -15.6150 C.3     1  UNL1        0.0645
      7  C         -0.0690   -5.4100  -15.5910 C.3     1  UNL1        0.0056
      8  C         -2.5200   -5.3680  -15.3600 C.3     1  UNL1        0.0056
      9  C         -1.2550   -7.3840  -14.5440 C.3     1  UNL1        0.2312
     10  O         -2.1850   -7.1730  -13.5230 O.3     1  UNL1       -0.2131
     11  C          0.1180   -7.5830  -13.9680 C.2     1  UNL1        0.2719
     12  N          0.3800   -7.2190  -12.6110 N.am    1  UNL1       -0.2028
     13  O          1.0340   -8.0490  -14.6940 O.2     1  UNL1       -0.2706
     14  C          1.6730   -7.3940  -11.9570 C.3     1  UNL1        0.1248
     15  C          2.2480   -6.0610  -11.4900 C.3     1  UNL1        0.1102
     16  C          3.6040   -5.8100  -12.0590 C.2     1  UNL1        0.2432
     17  N          4.1720   -6.7680  -12.9520 N.am    1  UNL1       -0.2044
     18  O          4.2350   -4.7610  -11.7550 O.2     1  UNL1       -0.2733
     19  C          5.5320   -6.6530  -13.4460 C.3     1  UNL1        0.1272
     20  C          6.1050   -8.0360  -13.7070 C.3     1  UNL1        0.0883
     21  S          7.7140   -7.9040  -14.5490 S.3     1  UNL1       -0.0753
     22  C          7.8560   -9.6770  -14.7590 C.2     1  UNL1        0.1988
     23  O          8.9380  -10.1730  -15.0210 O.2     1  UNL1       -0.2845
     24  C          6.6490  -10.5400  -14.6240 C.3     1  UNL1        0.0759
     25  C          7.0440  -11.9260  -14.1550 C.3     1  UNL1        0.0087
     26  C          6.7560  -12.0760  -12.6750 C.3     1  UNL1        0.0005
     27  C          8.0510  -11.9750  -11.8830 C.3     1  UNL1        0.0000
     28  C          7.7600  -11.5130  -10.4750 C.3     1  UNL1        0.0000
     29  C          6.4430  -10.7510  -10.4260 C.3     1  UNL1        0.0000
     30  C          5.7880  -10.8620   -9.0550 C.3     1  UNL1        0.0000
     31  C          4.5690   -9.9600   -8.9360 C.3     1  UNL1        0.0000
     32  C          4.4120   -9.1070  -10.1810 C.3     1  UNL1        0.0000
     33  O         -4.9870   -7.6420  -18.4060 O.3     1  UNL1       -0.2703
     34  P         -5.4840   -6.1950  -19.1540 P.3     1  UNL1        0.2189
     35  O         -5.7150   -6.4440  -20.8130 O.2     1  UNL1       -0.5170
     36  O         -4.3870   -5.1650  -18.9600 O.3     1  UNL1       -0.4371
     37  O         -6.9210   -5.6280  -18.4520 O.3     1  UNL1       -0.3112
     38  C         -7.2140   -4.4190  -19.0850 C.3     1  UNL1        0.1812
     39  C         -8.5530   -3.9000  -18.5950 C.3     1  UNL1        0.1795
     40  C         -9.3620   -3.3840  -19.7540 C.3     1  UNL1        0.1928
     41  C        -10.2020   -2.3090  -19.1230 C.3     1  UNL1        0.2543
     42  C         -9.3750   -1.9000  -17.9200 C.3     1  UNL1        0.3185
     43  O        -11.4220   -2.8230  -18.6740 O.3     1  UNL1       -0.2131
     44  O         -8.3560   -2.8470  -17.6850 O.3     1  UNL1       -0.3136
     45  O        -10.1420   -4.4040  -20.3110 O.3     1  UNL1       -0.2673
     46  P         -9.7760   -4.4010  -21.9690 P.3     1  UNL1        0.5327
     47  O         -9.2820   -2.8520  -22.4440 O.3     1  UNL1       -0.1145
     48  O        -11.1330   -4.8630  -22.8680 O.2     1  UNL1       -0.2224
     49  O         -8.6530   -5.3780  -22.2290 O.3     1  UNL1       -0.1145
     50  N         -8.7850   -0.5850  -18.1310 N.pl3   1  UNL1       -0.1439
     51  C         -7.5260   -0.2120  -17.8860 C.2     1  UNL1        0.3518
     52  N         -6.5180   -0.9630  -17.3760 N.2     1  UNL1       -0.0055
     53  C         -7.3670    1.0790  -18.2400 C.2     1  UNL1        0.2526
     54  C         -5.2970   -0.3680  -17.2170 C.3     1  UNL1        0.5254
     55  N         -5.1100    0.9440  -17.5680 N.2     1  UNL1        0.0021
     56  C         -6.1320    1.6930  -18.0830 C.2     1  UNL1        0.4393
     57  N         -5.9250    3.0510  -18.4470 N.pl3   1  UNL1        0.2180
     58  N         -8.5190    1.5790  -18.7270 N.2     1  UNL1       -0.2095
     59  C         -9.3770    0.5230  -18.6480 C.3     1  UNL1        0.3377
@<TRIPOS>BOND
     1    48    46    2
     2    47    46    1
     3    49    46    1
     4    46    45    1
     5    35    34    2
     6    45    40    1
     7     2     3    2
     8    40    41    1
     9    40    39    1
    10    34    36    1
    11    34    37    1
    12    34    33    1
    13    41    43    1
    14    41    42    1
    15    38    39    1
    16    38    37    1
    17    58    59    1
    18    58    53    2
    19    59    50    1
    20    39    44    1
    21     3    33    1
    22     3     1    1
    23     3     4    1
    24    57    56    1
    25    53    56    1
    26    53    51    1
    27    50    42    1
    28    50    51    1
    29    56    55    2
    30    42    44    1
    31    51    52    2
    32     4     5    1
    33    55    54    1
    34    52    54    1
    35     5     6    1
    36     6     7    1
    37     6     8    1
    38     6     9    1
    39    23    22    2
    40    22    24    1
    41    22    21    1
    42    13    11    2
    43    24    25    1
    44    21    20    1
    45     9    11    1
    46     9    10    1
    47    25    26    1
    48    11    12   am
    49    20    19    1
    50    19    17    1
    51    17    16   am
    52    26    27    1
    53    12    14    1
    54    16    18    2
    55    16    15    1
    56    14    15    1
    57    27    28    1
    58    28    29    1
    59    29    30    1
    60    32    31    1
    61    30    31    1
@<TRIPOS>MOLECULE
CHEMBL1949897 PubChem-440615
 59 61 0 0 0
SMALL
GASTEIGER

@<TRIPOS>ATOM
      1  O          0.5380   -8.6320  -13.9760 O.3     1  UNL1       -0.4371
      2  O          2.5680   -7.3510  -14.9650 O.2     1  UNL1       -0.5170
      3  P          1.0810   -7.2360  -14.1730 P.3     1  UNL1        0.2188
      4  O          1.3330   -6.5150  -12.6590 O.3     1  UNL1       -0.3138
      5  C          2.2150   -7.3630  -11.9760 C.3     1  UNL1        0.1519
      6  C          3.3400   -6.5600  -11.3250 C.3     1  UNL1        0.0645
      7  C          4.5630   -6.6190  -12.2300 C.3     1  UNL1        0.0056
      8  C          2.9110   -5.1010  -11.2180 C.3     1  UNL1        0.0056
      9  C          3.6520   -7.1290   -9.9260 C.3     1  UNL1        0.2312
     10  O          4.3210   -6.1970   -9.1270 O.3     1  UNL1       -0.2131
     11  C          4.4070   -8.4270   -9.9590 C.2     1  UNL1        0.2719
     12  N          5.8330   -8.4240   -9.8570 N.am    1  UNL1       -0.2028
     13  O          3.7780   -9.5080  -10.0980 O.2     1  UNL1       -0.2706
     14  C          6.6510   -9.6320   -9.8580 C.3     1  UNL1        0.1248
     15  C          7.0750  -10.0210  -11.2700 C.3     1  UNL1        0.1102
     16  C          6.9900  -11.4940  -11.4920 C.2     1  UNL1        0.2432
     17  N          7.0160  -12.3690  -10.3650 N.am    1  UNL1       -0.2044
     18  O          6.8940  -11.9540  -12.6620 O.2     1  UNL1       -0.2733
     19  C          7.0630  -13.8130  -10.5090 C.3     1  UNL1        0.1272
     20  C          6.0450  -14.4570   -9.5820 C.3     1  UNL1        0.0883
     21  S          6.1970  -13.7700   -7.9030 S.3     1  UNL1       -0.0753
     22  C          4.4220  -13.6700   -7.6820 C.2     1  UNL1        0.1988
     23  O          3.7880  -14.6720   -7.4010 O.2     1  UNL1       -0.2845
     24  C          3.7250  -12.3650   -7.8540 C.3     1  UNL1        0.0759
     25  C          3.6180  -11.6470   -6.5230 C.3     1  UNL1        0.0087
     26  C          4.4070  -10.3550   -6.5650 C.3     1  UNL1        0.0005
     27  C          5.6670  -10.4890   -5.7240 C.3     1  UNL1        0.0000
     28  C          6.6780   -9.4470   -6.1370 C.3     1  UNL1        0.0000
     29  C          6.9890   -8.5170   -4.9720 C.3     1  UNL1        0.0000
     30  C          6.1440   -8.8550   -3.7510 C.3     1  UNL1        0.0000
     31  C          6.2320   -7.7730   -2.6840 C.3     1  UNL1        0.0000
     32  C          6.2590   -6.3960   -3.3210 C.3     1  UNL1        0.0000
     33  O          0.0190   -6.3220  -15.1420 O.3     1  UNL1       -0.2703
     34  P         -1.5760   -6.7580  -14.7360 P.3     1  UNL1        0.2189
     35  O         -1.6540   -7.2490  -13.1170 O.3     1  UNL1       -0.4371
     36  O         -1.9850   -7.9190  -15.6220 O.2     1  UNL1       -0.5170
     37  O         -2.6310   -5.4530  -14.9930 O.3     1  UNL1       -0.3112
     38  C         -2.3410   -4.9610  -16.2660 C.3     1  UNL1        0.1812
     39  C         -3.6310   -4.5910  -16.9730 C.3     1  UNL1        0.1795
     40  C         -3.7710   -5.3870  -18.2420 C.3     1  UNL1        0.1928
     41  C         -4.5660   -4.4680  -19.1270 C.3     1  UNL1        0.2543
     42  C         -4.2450   -3.0990  -18.5630 C.3     1  UNL1        0.3185
     43  O         -5.9370   -4.7000  -18.9900 O.3     1  UNL1       -0.2131
     44  O         -3.6240   -3.2240  -17.3040 O.3     1  UNL1       -0.3136
     45  O         -4.4360   -6.5950  -18.0030 O.3     1  UNL1       -0.2673
     46  P         -3.7010   -7.7290  -19.0310 P.3     1  UNL1        0.5327
     47  O         -4.6750   -7.9820  -20.3940 O.2     1  UNL1       -0.2224
     48  O         -3.4750   -9.1950  -18.2170 O.3     1  UNL1       -0.1145
     49  O         -2.3590   -7.1960  -19.4750 O.3     1  UNL1       -0.1145
     50  N         -3.3740   -2.3650  -19.4710 N.pl3   1  UNL1       -0.1439
     51  C         -3.4660   -1.0800  -19.8230 C.2     1  UNL1        0.3518
     52  N         -4.3930   -0.1720  -19.4270 N.2     1  UNL1       -0.0055
     53  C         -2.4550   -0.7730  -20.6610 C.2     1  UNL1        0.2526
     54  C         -4.2850    1.1030  -19.9130 C.3     1  UNL1        0.5254
     55  N         -3.2680    1.4380  -20.7680 N.2     1  UNL1        0.0021
     56  C         -2.3370    0.5170  -21.1590 C.2     1  UNL1        0.4393
     57  N         -1.2840    0.8780  -22.0430 N.pl3   1  UNL1        0.2180
     58  N         -1.6780   -1.8530  -20.8750 N.2     1  UNL1       -0.2095
     59  C         -2.2720   -2.8210  -20.1230 C.3     1  UNL1        0.3377
@<TRIPOS>BOND
     1    57    56    1
     2    56    55    2
     3    56    53    1
     4    58    53    2
     5    58    59    1
     6    55    54    1
     7    53    51    1
     8    47    46    2
     9    59    50    1
    10    54    52    1
    11    51    50    1
    12    51    52    2
    13    49    46    1
    14    50    42    1
    15    41    43    1
    16    41    42    1
    17    41    40    1
    18    46    48    1
    19    46    45    1
    20    42    44    1
    21    40    45    1
    22    40    39    1
    23    44    39    1
    24    39    38    1
    25    38    37    1
    26    36    34    2
    27    33    34    1
    28    33     3    1
    29    37    34    1
    30     2     3    2
    31    34    35    1
    32     3     1    1
    33     3     4    1
    34    18    16    2
    35     4     5    1
    36     7     6    1
    37     5     6    1
    38    16    15    1
    39    16    17   am
    40     6     8    1
    41     6     9    1
    42    15    14    1
    43    19    17    1
    44    19    20    1
    45    13    11    2
    46    11     9    1
    47    11    12   am
    48     9    10    1
    49    14    12    1
    50    20    21    1
    51    21    22    1
    52    24    22    1
    53    24    25    1
    54    22    23    2
    55    26    25    1
    56    26    27    1
    57    28    27    1
    58    28    29    1
    59    29    30    1
    60    30    31    1
    61    32    31    1
@<TRIPOS>MOLECULE
CHEMBL149701_negative
 29 29 0 0 0
SMALL
GASTEIGER

@<TRIPOS>ATOM
      1  C         -2.1940   -2.3030  -19.1340 C.3     1  UNL1        0.0047
      2  C         -2.3090   -3.8270  -19.3930 C.3     1  UNL1        0.0218
      3  C         -0.9550   -4.3540  -19.8210 C.2     1  UNL1       -0.0310
      4  C         -0.1610   -5.0900  -19.0380 C.2     1  UNL1       -0.0306
      5  C         -0.5210   -5.5090  -17.6280 C.3     1  UNL1        0.0294
      6  C         -1.7810   -4.7900  -17.0660 C.3     1  UNL1        0.0485
      7  C         -2.8720   -4.6440  -18.1800 C.3     1  UNL1        0.0080
      8  C         -4.2340   -4.1000  -17.6450 C.3     1  UNL1        0.0029
      9  C         -5.4450   -4.3870  -18.5700 C.3     1  UNL1        0.0293
     10  C         -5.7670   -5.8970  -18.6840 C.3     1  UNL1        0.1130
     11  O         -7.0530   -6.1500  -18.1180 O.3     1  UNL1       -0.3844
     12  H         -6.9260   -6.3930  -17.1840 H       1  UNL1        0.2103
     13  C         -5.7110   -6.3750  -20.1600 C.3     1  UNL1        0.0590
     14  C         -4.9480   -7.7100  -20.3710 C.3     1  UNL1        0.1241
     15  O         -5.0700   -8.1580  -21.7210 O.3     1  UNL1       -0.3838
     16  H         -5.7630   -7.6340  -22.1570 H       1  UNL1        0.2104
     17  C         -3.4480   -7.5640  -20.0160 C.3     1  UNL1        0.1385
     18  C         -2.9760   -8.6250  -19.0170 C.2     1  UNL1        0.3163
     19  O         -2.7080   -9.7740  -19.3170 O.2     1  UNL1       -0.2502
     20  O         -3.0330   -8.2320  -17.7280 O.3     1  UNL1       -0.4801
     21  H         -3.2890   -9.0320  -17.2360 H       1  UNL1        0.2951
     22  C         -2.2910   -5.5200  -15.7950 C.3     1  UNL1        0.2087
     23  O         -1.4820   -6.6890  -15.5650 O.3     1  UNL1       -0.4485
     24  C         -1.2460   -7.0980  -14.2810 C.2     1  UNL1        0.3159
     25  O         -2.1110   -7.1670  -13.4210 O.2     1  UNL1       -0.2501
     26  C          0.2390   -7.4640  -14.0570 C.3     1  UNL1        0.0896
     27  C          0.4420   -7.9320  -12.5930 C.3     1  UNL1        0.0111
     28  C          0.6610   -8.6120  -15.0130 C.3     1  UNL1        0.0111
     29  C          1.1300   -6.2260  -14.3390 C.3     1  UNL1        0.0111
@<TRIPOS>BOND
     1    16    15    1
     2    15    14    1
     3    14    13    1
     4    14    17    1
     5    13    10    1
     6    17    18    1
     7     3     2    1
     8     3     4    2
     9     2     1    1
    10     2     7    1
    11    19    18    2
    12     4     5    1
    13    18    20    1
    14    10     9    1
    15    10    11    1
    16     9     8    1
    17     7     8    1
    18     7     6    1
    19    11    12    1
    20    20    21    1
    21     5     6    1
    22     6    22    1
    23    22    23    1
    24    23    24    1
    25    28    26    1
    26    29    26    1
    27    24    26    1
    28    24    25    2
    29    26    27    1
@<TRIPOS>MOLECULE
CHEMBL149701_negative
 29 29 0 0 0
SMALL
GASTEIGER

@<TRIPOS>ATOM
      1  C         -2.7820   -2.3510  -18.7480 C.3     1  UNL1        0.0047
      2  C         -2.1360   -3.7430  -18.9690 C.3     1  UNL1        0.0218
      3  C         -0.6290   -3.5830  -19.0010 C.2     1  UNL1       -0.0310
      4  C          0.1800   -3.9590  -18.0070 C.2     1  UNL1       -0.0306
      5  C         -0.3010   -4.6120  -16.7290 C.3     1  UNL1        0.0294
      6  C         -1.8460   -4.5700  -16.5500 C.3     1  UNL1        0.0485
      7  C         -2.5630   -4.8240  -17.9190 C.3     1  UNL1        0.0080
      8  C         -4.1110   -4.9810  -17.7860 C.3     1  UNL1        0.0029
      9  C         -4.7440   -5.9630  -18.8070 C.3     1  UNL1        0.0293
     10  C         -6.2480   -5.6880  -19.0480 C.3     1  UNL1        0.1130
     11  O         -7.0220   -6.4440  -18.1160 O.3     1  UNL1       -0.3844
     12  H         -6.5010   -7.2240  -17.8570 H       1  UNL1        0.2103
     13  C         -6.5710   -4.1740  -18.9320 C.3     1  UNL1        0.0590
     14  C         -8.0570   -3.8150  -19.1960 C.3     1  UNL1        0.1241
     15  O         -8.9140   -4.4710  -18.2610 O.3     1  UNL1       -0.3838
     16  H         -9.6250   -4.9140  -18.7550 H       1  UNL1        0.2104
     17  C         -8.2910   -2.2870  -19.1160 C.3     1  UNL1        0.1385
     18  C         -7.8190   -1.6900  -17.7880 C.2     1  UNL1        0.3163
     19  O         -6.7540   -1.1200  -17.6350 O.2     1  UNL1       -0.2502
     20  O         -8.6110   -1.9860  -16.7370 O.3     1  UNL1       -0.4801
     21  H         -9.2740   -1.2740  -16.7190 H       1  UNL1        0.2951
     22  C         -2.2830   -5.5550  -15.4330 C.3     1  UNL1        0.2087
     23  O         -1.2640   -6.5590  -15.2640 O.3     1  UNL1       -0.4485
     24  C         -1.0560   -7.1000  -14.0250 C.2     1  UNL1        0.3159
     25  O         -1.9270   -7.2020  -13.1750 O.2     1  UNL1       -0.2501
     26  C          0.4050   -7.5690  -13.8380 C.3     1  UNL1        0.0896
     27  C          0.5590   -8.2440  -12.4510 C.3     1  UNL1        0.0111
     28  C          0.7870   -8.5940  -14.9390 C.3     1  UNL1        0.0111
     29  C          1.3600   -6.3510  -13.9370 C.3     1  UNL1        0.0111
@<TRIPOS>BOND
     1    14    17    1
     2    14    13    1
     3    14    15    1
     4    17    18    1
     5    10    13    1
     6    10     9    1
     7    10    11    1
     8     3     2    1
     9     3     4    2
    10     2     1    1
    11     2     7    1
    12     9     8    1
    13    16    15    1
    14    11    12    1
    15     4     5    1
    16     7     8    1
    17     7     6    1
    18    18    19    2
    19    18    20    1
    20    20    21    1
    21     5     6    1
    22     6    22    1
    23    22    23    1
    24    23    24    1
    25    28    26    1
    26    24    26    1
    27    24    25    2
    28    29    26    1
    29    26    27    1
@<TRIPOS>MOLECULE
CHEMBL149701_negative
 29 29 0 0 0
SMALL
GASTEIGER

@<TRIPOS>ATOM
      1  C          1.3720   -7.0410  -10.7630 C.3     1  UNL1        0.0047
      2  C          1.8330   -5.8730  -11.6710 C.3     1  UNL1        0.0218
      3  C          2.8510   -5.0410  -10.9170 C.2     1  UNL1       -0.0310
      4  C          4.1610   -5.0520  -11.1770 C.2     1  UNL1       -0.0306
      5  C          4.7970   -5.8830  -12.2710 C.3     1  UNL1        0.0294
      6  C          3.8320   -6.9290  -12.9000 C.3     1  UNL1        0.0485
      7  C          2.3970   -6.3230  -13.0620 C.3     1  UNL1        0.0080
      8  C          1.4210   -7.2480  -13.8560 C.3     1  UNL1        0.0029
      9  C          0.2360   -6.5040  -14.5250 C.3     1  UNL1        0.0293
     10  C         -1.0670   -7.3390  -14.5340 C.3     1  UNL1        0.1130
     11  O         -1.7980   -7.0890  -13.3340 O.3     1  UNL1       -0.3844
     12  H         -2.5150   -7.7430  -13.2770 H       1  UNL1        0.2103
     13  C         -1.9320   -7.0210  -15.7830 C.3     1  UNL1        0.0590
     14  C         -1.9290   -8.1360  -16.8640 C.3     1  UNL1        0.1241
     15  O         -2.5140   -9.3360  -16.3590 O.3     1  UNL1       -0.3838
     16  H         -2.1870  -10.0830  -16.8890 H       1  UNL1        0.2104
     17  C         -2.6930   -7.6910  -18.1340 C.3     1  UNL1        0.1385
     18  C         -3.3260   -8.8690  -18.8800 C.2     1  UNL1        0.3163
     19  O         -4.5160   -9.1290  -18.8620 O.2     1  UNL1       -0.2502
     20  O         -2.4340   -9.7120  -19.4390 O.3     1  UNL1       -0.4801
     21  H         -2.9290  -10.5360  -19.5850 H       1  UNL1        0.2951
     22  C          4.4250   -7.4740  -14.2270 C.3     1  UNL1        0.2087
     23  O          5.8560   -7.3150  -14.2050 O.3     1  UNL1       -0.4485
     24  C          6.6480   -8.3110  -14.7090 C.2     1  UNL1        0.3159
     25  O          6.6640   -8.6330  -15.8880 O.2     1  UNL1       -0.2501
     26  C          7.5170   -8.9680  -13.6130 C.3     1  UNL1        0.0896
     27  C          8.8830   -9.3850  -14.2150 C.3     1  UNL1        0.0111
     28  C          7.7660   -7.9680  -12.4520 C.3     1  UNL1        0.0111
     29  C          6.7890  -10.2170  -13.0500 C.3     1  UNL1        0.0111
@<TRIPOS>BOND
     1    21    20    1
     2    20    18    1
     3    18    19    2
     4    18    17    1
     5    17    14    1
     6    16    15    1
     7    14    15    1
     8    14    13    1
     9    25    24    2
    10    13    10    1
    11    24    23    1
    12    24    26    1
    13    10     9    1
    14    10    11    1
    15     9     8    1
    16    22    23    1
    17    22     6    1
    18    27    26    1
    19     8     7    1
    20    26    29    1
    21    26    28    1
    22    11    12    1
    23     7     6    1
    24     7     2    1
    25     6     5    1
    26     5     4    1
    27     2     3    1
    28     2     1    1
    29     4     3    2
