CHEMBL4538120 PubChem-140742745


 79 84  0  0  0  0  0  0  0  0999 V2000
   -7.8534   -6.5342  -22.7252 C   0  0  0  0  0
   -8.6059   -7.7399  -23.2716 C   0  0  0  0  0
   -7.8666   -9.4693  -21.6204 C   0  0  0  0  0
   -6.5354   -9.4005  -22.0569 C   0  0  0  0  0
   -5.5412  -10.1836  -21.4592 C   0  0  0  0  0
   -5.8737  -11.0325  -20.4033 C   0  0  0  0  0
   -7.1926  -11.1249  -19.9543 C   0  0  0  0  0
   -8.2046  -10.3430  -20.5579 C   0  0  0  0  0
   -9.5185  -10.4822  -20.0680 C   0  0  0  0  0
   -9.7846  -11.3973  -19.0425 C   0  0  0  0  0
   -8.7153  -12.1397  -18.4871 C   0  0  0  0  0
   -8.8946  -13.1394  -17.3981 C   0  0  0  0  0
   -7.8052  -13.9328  -17.0069 C   0  0  0  0  0
   -7.9496  -14.8985  -16.0057 C   0  0  0  0  0
   -9.1841  -15.0839  -15.3695 C   0  0  0  0  0
  -10.2900  -14.3141  -15.7749 C   0  0  0  0  0
  -10.1318  -13.3444  -16.7683 C   0  0  0  0  0
   -8.5853   -5.9378  -21.5272 C   0  0  0  0  0
   -6.5858   -4.9564  -20.3994 C   0  0  0  0  0
   -5.9589   -6.2117  -20.3235 C   0  0  0  0  0
   -4.6762   -6.3518  -19.7992 C   0  0  0  0  0
   -4.0047   -5.2220  -19.3249 C   0  0  0  0  0
   -4.6079   -3.9641  -19.3746 C   0  0  0  0  0
   -5.9118   -3.8151  -19.8996 C   0  0  0  0  0
   -6.4747   -2.5215  -19.8973 C   0  0  0  0  0
   -5.7369   -1.4433  -19.3814 C   0  0  0  0  0
   -4.4183   -1.6735  -18.9237 C   0  0  0  0  0
   -3.5245   -0.5896  -18.4361 C   0  0  0  0  0
   -3.8525    0.7686  -18.5738 C   0  0  0  0  0
   -2.9710    1.7619  -18.1496 C   0  0  0  0  0
   -1.7308    1.4168  -17.5901 C   0  0  0  0  0
   -1.3863    0.0625  -17.4525 C   0  0  0  0  0
   -2.2861   -0.9259  -17.8732 C   0  0  0  0  0
   -8.8586   -8.6977  -22.2449 O   0  0  0  0  0
  -10.4620   -9.7812  -20.5254 O   0  0  0  0  0
   -7.4841  -11.9632  -18.9654 O   0  0  0  0  0
  -11.5544  -14.5221  -15.2359 O   0  0  0  0  0
  -12.8000  -15.5230  -17.3118 O   0  0  0  0  0
  -13.8758  -15.7146  -15.1131 O   0  0  0  0  0
  -11.8383  -17.2506  -15.6228 O   0  0  0  0  0
   -9.2816  -16.0536  -14.3683 O   0  0  0  0  0
   -9.4355  -16.8603  -11.8833 O   0  0  0  0  0
   -9.0197  -14.4760  -12.2789 O   0  0  0  0  0
  -11.4155  -15.3999  -12.6816 O   0  0  0  0  0
  -11.0907  -11.5515  -18.5780 O   0  0  0  0  0
  -11.7479  -13.7865  -19.8024 O   0  0  0  0  0
  -12.5740  -11.6762  -20.7558 O   0  0  0  0  0
  -13.6577  -12.5326  -18.5606 O   0  0  0  0  0
   -4.2187  -10.1578  -21.9071 O   0  0  0  0  0
   -2.2895   -9.6458  -23.6029 O   0  0  0  0  0
   -4.5677   -9.8127  -24.4911 O   0  0  0  0  0
   -3.9317   -7.6866  -23.1319 O   0  0  0  0  0
   -7.8568   -4.8387  -20.9822 O   0  0  0  0  0
   -7.6286   -2.3159  -20.3651 O   0  0  0  0  0
   -3.9334   -2.9133  -18.9288 O   0  0  0  0  0
   -0.1454   -0.2812  -16.9019 O   0  0  0  0  0
    0.3607   -2.6361  -17.9577 O   0  0  0  0  0
   -0.5776   -2.5745  -15.6934 O   0  0  0  0  0
    1.9053   -1.8900  -16.0005 O   0  0  0  0  0
   -0.8212    2.3970  -17.1804 O   0  0  0  0  0
   -2.2263    4.4726  -16.3758 O   0  0  0  0  0
   -1.4864    4.4451  -18.7155 O   0  0  0  0  0
    0.2796    4.9063  -16.8745 O   0  0  0  0  0
   -6.3022   -0.1660  -19.3330 O   0  0  0  0  0
   -7.0026   -0.0930  -16.8043 O   0  0  0  0  0
   -8.7500   -0.5581  -18.4525 O   0  0  0  0  0
   -7.8479    1.8714  -18.2861 O   0  0  0  0  0
   -4.0915   -7.6201  -19.7761 O   0  0  0  0  0
   -1.5232   -7.0509  -19.8649 O   0  0  0  0  0
   -2.1727   -9.3677  -19.4093 O   0  0  0  0  0
   -2.4971   -7.6162  -17.5217 O   0  0  0  0  0
  -12.5644  -15.7514  -15.8460 S   0  0  0  0  0
   -9.7638  -15.6902  -12.7660 S   0  0  0  0  0
  -12.2611  -12.4079  -19.4824 S   0  0  0  0  0
   -3.7339   -9.3461  -23.3321 S   0  0  0  0  0
    0.3561   -1.8984  -16.6528 S   0  0  0  0  0
   -1.1138    4.0804  -17.3037 S   0  0  0  0  0
   -7.5012    0.2286  -18.1846 S   0  0  0  0  0
   -2.5244   -7.9271  -19.1703 S   0  0  0  0  0
  1  2  1  0  0  0
  1 18  1  0  0  0
  2 34  1  0  0  0
  3 34  1  0  0  0
  4  5  1  0  0  0
  5 49  1  0  0  0
  6  7  1  0  0  0
  7 36  1  0  0  0
  8  9  1  0  0  0
  8  3  1  0  0  0
  9 10  1  0  0  0
 10 45  1  0  0  0
 11 36  1  0  0  0
 11 12  1  0  0  0
 13 14  1  0  0  0
 15 16  1  0  0  0
 15 41  1  0  0  0
 16 37  1  0  0  0
 17 12  1  0  0  0
 18 53  1  0  0  0
 19 53  1  0  0  0
 20 21  1  0  0  0
 21 68  1  0  0  0
 22 23  1  0  0  0
 23 55  1  0  0  0
 24 25  1  0  0  0
 24 19  1  0  0  0
 25 26  1  0  0  0
 26 64  1  0  0  0
 27 55  1  0  0  0
 27 28  1  0  0  0
 29 30  1  0  0  0
 31 32  1  0  0  0
 31 60  1  0  0  0
 32 56  1  0  0  0
 33 28  1  0  0  0
 72 37  1  0  0  0
 72 40  1  0  0  0
 73 41  1  0  0  0
 73 44  1  0  0  0
 74 45  1  0  0  0
 74 48  1  0  0  0
 75 49  1  0  0  0
 75 52  1  0  0  0
 76 56  1  0  0  0
 76 59  1  0  0  0
 77 60  1  0  0  0
 77 63  1  0  0  0
 78 64  1  0  0  0
 78 67  1  0  0  0
 79 68  1  0  0  0
 79 71  1  0  0  0
  3  4  2  0  0  0
  5  6  2  0  0  0
  7  8  2  0  0  0
  9 35  2  0  0  0
 10 11  2  0  0  0
 12 13  2  0  0  0
 14 15  2  0  0  0
 16 17  2  0  0  0
 19 20  2  0  0  0
 21 22  2  0  0  0
 23 24  2  0  0  0
 25 54  2  0  0  0
 26 27  2  0  0  0
 28 29  2  0  0  0
 30 31  2  0  0  0
 32 33  2  0  0  0
 72 38  2  0  0  0
 72 39  2  0  0  0
 73 42  2  0  0  0
 73 43  2  0  0  0
 74 46  2  0  0  0
 74 47  2  0  0  0
 75 50  2  0  0  0
 75 51  2  0  0  0
 76 57  2  0  0  0
 76 58  2  0  0  0
 77 61  2  0  0  0
 77 62  2  0  0  0
 78 65  2  0  0  0
 78 66  2  0  0  0
 79 69  2  0  0  0
 79 70  2  0  0  0
M  CHG  8  40  -1  44  -1  48  -1  52  -1  59  -1  63  -1  67  -1  71  -1
M  END
> <rmsd>
0.728461087

$$$$
CHEMBL1949897 PubChem-440615


 59 61  0  0  0  0  0  0  0  0999 V2000
   -6.0009  -11.0962  -13.8244 S   0  0  0  0  0
   -4.8713  -10.1539  -12.7514 C   0  0  0  0  0
   -3.5318  -10.8645  -12.6436 C   0  0  0  0  0
   -1.4679  -10.1008  -13.8720 C   0  0  0  0  0
   -0.8030   -9.8163  -15.1768 C   0  0  0  0  0
   -0.5124   -8.3297  -15.3553 C   0  0  0  0  0
   -2.8479   -7.6347  -16.1018 C   0  0  0  0  0
   -4.0605   -6.7803  -15.8711 C   0  0  0  0  0
   -4.0896   -5.5015  -16.7344 C   0  0  0  0  0
   -4.2236   -5.8723  -18.2098 C   0  0  0  0  0
   -6.9328   -2.8288  -19.5745 C   0  0  0  0  0
   -6.6982   -1.9441  -18.3653 C   0  0  0  0  0
   -7.5509   -0.7075  -18.4572 C   0  0  0  0  0
   -6.7358    0.3164  -17.7176 C   0  0  0  0  0
   -5.3238   -0.2173  -17.8538 C   0  0  0  0  0
   -4.7813    0.8047  -20.1042 C   0  0  0  0  0
   -3.0272    1.9135  -19.6431 C   0  0  0  0  0
   -3.4512    1.3084  -18.5148 C   0  0  0  0  0
   -1.6741    2.1996  -17.2946 C   0  0  0  0  0
   -1.8837    2.7000  -19.6176 C   0  0  0  0  0
   -2.8184   -4.6849  -16.5529 C   0  0  0  0  0
   -5.2691   -4.6224  -16.3341 C   0  0  0  0  0
   -5.9357   -9.8698  -15.1282 C   0  0  0  0  0
   -6.9068   -8.7399  -15.1347 C   0  0  0  0  0
   -7.7480   -8.7776  -16.3954 C   0  0  0  0  0
   -8.9191   -7.8258  -16.2668 C   0  0  0  0  0
  -10.0082   -8.4560  -15.4119 C   0  0  0  0  0
  -11.1384   -7.4750  -15.2081 C   0  0  0  0  0
  -12.2610   -8.1167  -14.4055 C   0  0  0  0  0
  -12.0320   -7.9605  -12.9072 C   0  0  0  0  0
  -10.9787   -8.9298  -12.3907 C   0  0  0  0  0
  -11.5294  -10.3435  -12.3523 C   0  0  0  0  0
   -2.7745  -10.6750  -13.8684 N   0  0  0  0  0
   -1.7242   -7.5277  -15.2248 N   0  0  0  0  0
   -4.5558    0.6049  -18.7794 N   0  0  0  0  0
   -3.8457    1.6184  -20.6713 N   0  0  0  0  0
   -2.8019    1.4259  -17.3302 N   0  0  0  0  0
   -1.2238    2.8272  -18.4280 N   0  0  0  0  0
   -1.4049    3.3523  -20.7869 N   0  0  0  0  0
   -0.8774   -9.8389  -12.7888 O   0  0  0  0  0
   -2.8232   -8.4246  -17.0808 O   0  0  0  0  0
   -5.4683   -6.4673  -18.4599 O   0  0  0  0  0
   -6.7564   -7.5355  -20.4727 O   0  0  0  0  0
   -4.8502   -5.8332  -21.1332 O   0  0  0  0  0
   -5.4293   -3.4352  -21.9783 O   0  0  0  0  0
   -6.1115   -3.9554  -19.4959 O   0  0  0  0  0
   -5.3492   -1.5513  -18.3106 O   0  0  0  0  0
   -7.0751    0.3463  -16.3617 O   0  0  0  0  0
   -8.8001   -0.9183  -17.8607 O   0  0  0  0  0
  -11.3255   -0.5226  -18.4181 O   0  0  0  0  0
   -9.8653   -1.4848  -20.3589 O   0  0  0  0  0
   -9.6449    1.1433  -19.5254 O   0  0  0  0  0
   -7.4680   -5.0401  -21.6596 O   0  0  0  0  0
   -4.3117   -8.3342  -20.1114 O   0  0  0  0  0
   -4.1993   -6.4879  -14.5115 O   0  0  0  0  0
   -5.0909   -9.9576  -16.0020 O   0  0  0  0  0
   -5.3924   -7.0368  -20.0558 P   0  0  0  0  0
   -5.9564   -4.5399  -21.0821 P   0  0  0  0  0
   -9.9431   -0.4463  -19.0241 P   0  0  0  0  0
  2  1  1  0  0  0
  2  3  1  0  0  0
  3 33  1  0  0  0
  5  4  1  0  0  0
  5  6  1  0  0  0
  6 34  1  0  0  0
  8  7  1  0  0  0
  8  9  1  0  0  0
  8 55  1  0  0  0
  9 10  1  0  0  0
  9 21  1  0  0  0
  9 22  1  0  0  0
 10 42  1  0  0  0
 11 46  1  0  0  0
 12 11  1  0  0  0
 12 13  1  0  0  0
 12 47  1  0  0  0
 13 14  1  0  0  0
 13 49  1  0  0  0
 14 15  1  0  0  0
 14 48  1  0  0  0
 15 47  1  0  0  0
 15 35  1  0  0  0
 17 36  1  0  0  0
 18 37  1  0  0  0
 18 35  1  0  0  0
 19 38  1  0  0  0
 20 39  1  0  0  0
 20 17  1  0  0  0
 23  1  1  0  0  0
 24 23  1  0  0  0
 24 25  1  0  0  0
 25 26  1  0  0  0
 26 27  1  0  0  0
 27 28  1  0  0  0
 28 29  1  0  0  0
 29 30  1  0  0  0
 30 31  1  0  0  0
 31 32  1  0  0  0
 33  4  1  0  0  0
 34  7  1  0  0  0
 35 16  1  0  0  0
 57 42  1  0  0  0
 57 44  1  0  0  0
 57 54  1  0  0  0
 58 44  1  0  0  0
 58 46  1  0  0  0
 58 53  1  0  0  0
 59 49  1  0  0  0
 59 51  1  0  0  0
 59 52  1  0  0  0
  4 40  2  0  0  0
  7 41  2  0  0  0
 16 36  2  0  0  0
 17 18  2  0  0  0
 19 37  2  0  0  0
 20 38  2  0  0  0
 23 56  2  0  0  0
 57 43  2  0  0  0
 58 45  2  0  0  0
 59 50  2  0  0  0
M  END
> <rmsd>
0.687954366

$$$$
CHEMBL3652606 PubChem-68600802


 49 53  0  0  0  0  0  0  0  0999 V2000
   -4.4784   -3.3939  -29.1098 C   0  0  0  0  0
   -3.5641   -4.5364  -28.7013 C   0  0  0  0  0
   -3.4225   -5.2644  -26.3476 C   0  0  0  0  0
   -3.2974   -6.0311  -23.9557 C   0  0  0  0  0
   -4.1561   -6.6974  -22.8837 C   0  0  0  0  0
   -6.2367   -5.8958  -24.0974 C   0  0  0  0  0
   -5.4264   -6.3544  -25.3130 C   0  0  0  0  0
   -6.0016   -5.5515  -21.6194 C   0  0  0  0  0
   -5.1971   -5.6480  -20.3565 C   0  0  0  0  0
   -5.8583   -6.5517  -19.3168 C   0  0  0  0  0
   -4.8919   -6.8566  -18.1719 C   0  0  0  0  0
   -3.8323   -7.8448  -18.5491 C   0  0  0  0  0
   -5.7847   -3.4493  -19.1575 C   0  0  0  0  0
   -5.3231   -2.1335  -18.6937 C   0  0  0  0  0
   -3.6284   -0.4671  -18.6479 C   0  0  0  0  0
   -4.4264    0.3554  -17.8206 C   0  0  0  0  0
   -3.9435    1.6086  -17.4187 C   0  0  0  0  0
   -2.6812    2.0390  -17.8351 C   0  0  0  0  0
   -1.8933    1.2213  -18.6503 C   0  0  0  0  0
   -2.3676   -0.0289  -19.0585 C   0  0  0  0  0
   -0.5575    1.6897  -19.1021 C   0  0  0  0  0
   -5.6893   -0.1005  -17.4190 C   0  0  0  0  0
   -6.1379   -1.3491  -17.8699 C   0  0  0  0  0
   -7.7919    0.3143  -16.1674 C   0  0  0  0  0
   -8.7899    0.6889  -17.2163 C   0  0  0  0  0
  -10.2260    2.4529  -18.3231 C   0  0  0  0  0
  -10.2425    3.9722  -18.3202 C   0  0  0  0  0
   -8.9147    4.4216  -17.7187 C   0  0  0  0  0
   -8.2941    3.1975  -17.0637 C   0  0  0  0  0
   -8.2702    3.3604  -15.5685 C   0  0  0  0  0
   -6.9094    3.8160  -13.4740 C   0  0  0  0  0
   -5.4394    4.1347  -13.2329 C   0  0  0  0  0
   -4.9059    4.6726  -14.5528 C   0  0  0  0  0
   -5.8691    4.1841  -15.6237 C   0  0  0  0  0
   -4.1106   -5.1905  -27.5636 O   0  0  0  0  0
   -2.2534   -4.7944  -26.2507 O   0  0  0  0  0
   -7.1346   -4.9965  -21.5970 O   0  0  0  0  0
   -3.8393   -8.4221  -19.6691 O   0  0  0  0  0
   -2.8220   -8.1283  -17.6412 O   0  0  0  0  0
   -6.9750   -3.8122  -18.9442 O   0  0  0  0  0
   -6.4749    0.6809  -16.5643 O   0  0  0  0  0
   -9.3936   -0.2279  -17.8394 O   0  0  0  0  0
   -9.3129    3.1361  -14.8892 O   0  0  0  0  0
   -4.0490   -5.8708  -25.2069 N   0  0  0  0  0
   -5.4791   -6.0711  -22.8520 N   0  0  0  0  0
   -4.8673   -4.3260  -19.8250 N   0  0  0  0  0
   -4.0913   -1.6789  -19.0542 N   0  0  0  0  0
   -9.1158    2.0661  -17.4737 N   0  0  0  0  0
   -7.0623    3.7676  -14.9133 N   0  0  0  0  0
  1  2  1  0  0  0
  2 35  1  0  0  0
  3 35  1  0  0  0
  3 44  1  0  0  0
  4 44  1  0  0  0
  4  5  1  0  0  0
  5 45  1  0  0  0
  6 45  1  0  0  0
  6  7  1  0  0  0
  7 44  1  0  0  0
  9  8  1  0  0  0
  9 10  1  0  0  0
  9 46  1  0  0  0
 10 11  1  0  0  0
 11 12  1  0  0  0
 12 39  1  0  0  0
 13 14  1  0  0  0
 15 47  1  0  0  0
 16 17  1  0  0  0
 16 22  1  0  0  0
 18 19  1  0  0  0
 20 15  1  0  0  0
 21 19  1  0  0  0
 22 41  1  0  0  0
 23 14  1  0  0  0
 24 41  1  0  0  0
 24 25  1  0  0  0
 25 48  1  0  0  0
 26 48  1  0  0  0
 26 27  1  0  0  0
 27 28  1  0  0  0
 28 29  1  0  0  0
 29 30  1  0  0  0
 29 48  1  0  0  0
 30 49  1  0  0  0
 31 49  1  0  0  0
 31 32  1  0  0  0
 32 33  1  0  0  0
 33 34  1  0  0  0
 34 49  1  0  0  0
 45  8  1  0  0  0
 46 13  1  0  0  0
  3 36  2  0  0  0
  8 37  2  0  0  0
 12 38  2  0  0  0
 13 40  2  0  0  0
 14 47  2  0  0  0
 15 16  2  0  0  0
 17 18  2  0  0  0
 19 20  2  0  0  0
 22 23  2  0  0  0
 25 42  2  0  0  0
 30 43  2  0  0  0
M  END
> <rmsd>
0.822170615

$$$$
CHEMBL261903 PubChem-44413878


 93104  0  0  0  0  0  0  0  0999 V2000
   -6.9979  -17.7677  -19.2728 N   0  0  0  0  0
   -5.4961  -16.1018  -18.4958 N   0  0  0  0  0
   -7.2437  -18.2725  -21.6273 N   0  0  0  0  0
   -5.1857  -16.1317  -21.9875 N   0  0  0  0  0
   -4.2622  -14.9968  -20.2627 N   0  0  0  0  0
   -3.9666   -6.6375  -18.1808 N   0  0  0  0  0
   -1.7589   -7.6010  -18.0309 N   0  0  0  0  0
   -0.5144   -6.8819  -16.1381 N   0  0  0  0  0
   -3.8506   -5.3936  -16.2866 N   0  0  0  0  0
   -1.4273   -5.3255  -14.5201 N   0  0  0  0  0
   -3.4284   -0.4181  -17.9363 N   0  0  0  0  0
   -3.7415    0.2742  -20.2349 N   0  0  0  0  0
   -2.3061    2.0508  -20.9058 N   0  0  0  0  0
   -1.7816    1.0529  -17.4279 N   0  0  0  0  0
   -0.7066    3.0506  -19.3916 N   0  0  0  0  0
   -5.8630    6.6107  -20.3555 N   0  0  0  0  0
   -6.6531    6.0976  -22.5818 N   0  0  0  0  0
   -7.7156    7.9300  -23.6701 N   0  0  0  0  0
   -6.5354    8.7715  -20.3215 N   0  0  0  0  0
   -7.9593   10.0927  -22.5989 N   0  0  0  0  0
   -6.4376  -17.0570  -18.2430 C   0  0  0  0  0
   -5.1433  -15.8858  -19.7879 C   0  0  0  0  0
   -5.6886  -16.5642  -20.8162 C   0  0  0  0  0
   -6.6417  -17.5367  -20.5702 C   0  0  0  0  0
   -4.3096  -15.1595  -21.6093 C   0  0  0  0  0
   -3.4621  -14.0127  -19.5362 C   0  0  0  0  0
   -4.2471  -12.7680  -19.1540 C   0  0  0  0  0
   -6.5119   -9.6879  -20.4448 C   0  0  0  0  0
   -6.1904   -8.7633  -19.2744 C   0  0  0  0  0
   -6.8102   -7.4093  -19.5350 C   0  0  0  0  0
   -5.6584   -6.5659  -19.9929 C   0  0  0  0  0
   -4.4587   -7.2790  -19.4017 C   0  0  0  0  0
   -2.7760   -6.8157  -17.6028 C   0  0  0  0  0
   -0.6178   -7.6324  -17.2813 C   0  0  0  0  0
   -1.5459   -6.0964  -15.7104 C   0  0  0  0  0
   -2.7074   -6.0781  -16.4728 C   0  0  0  0  0
   -4.6082   -5.7649  -17.3586 C   0  0  0  0  0
   -5.7254   -3.0825  -20.5545 C   0  0  0  0  0
   -5.3408   -3.1190  -19.0872 C   0  0  0  0  0
   -6.4286   -2.4503  -18.2683 C   0  0  0  0  0
   -5.7745   -1.2210  -17.7117 C   0  0  0  0  0
   -4.3021   -1.5798  -17.8208 C   0  0  0  0  0
   -3.1825    0.3520  -19.0040 C   0  0  0  0  0
   -3.2913    1.1381  -21.1932 C   0  0  0  0  0
   -1.7447    2.1177  -19.6654 C   0  0  0  0  0
   -2.2019    1.2318  -18.6977 C   0  0  0  0  0
   -2.5574    0.0219  -16.9921 C   0  0  0  0  0
   -6.9643    2.9859  -17.8760 C   0  0  0  0  0
   -5.8321    3.5284  -18.7297 C   0  0  0  0  0
   -4.8960    4.3042  -17.8450 C   0  0  0  0  0
   -4.4240    5.4356  -18.7265 C   0  0  0  0  0
   -5.2978    5.3199  -19.9651 C   0  0  0  0  0
   -6.4635    6.9073  -21.5141 C   0  0  0  0  0
   -7.2911    6.6223  -23.6692 C   0  0  0  0  0
   -7.5143    8.7373  -22.5874 C   0  0  0  0  0
   -6.8674    8.1955  -21.4906 C   0  0  0  0  0
   -5.9235    7.7630  -19.6371 C   0  0  0  0  0
   -3.5721  -12.3268  -17.8940 C   0  0  0  0  0
   -2.8035  -13.5488  -17.4267 C   0  0  0  0  0
   -3.3746  -14.0208  -16.0990 C   0  0  0  0  0
   -5.5875  -13.0639  -18.8735 O   0  0  0  0  0
   -6.8463  -12.9833  -21.1649 O   0  0  0  0  0
   -5.6335  -10.7734  -20.4630 O   0  0  0  0  0
   -4.7902   -8.6240  -19.1409 O   0  0  0  0  0
   -5.5717   -6.6609  -21.3867 O   0  0  0  0  0
   -7.4061   -4.8222  -21.7466 O   0  0  0  0  0
   -4.9162   -3.9547  -21.2771 O   0  0  0  0  0
   -4.1155   -2.4495  -18.9062 O   0  0  0  0  0
   -6.0894   -0.1184  -18.5184 O   0  0  0  0  0
   -7.4066    0.7104  -16.3680 O   0  0  0  0  0
   -7.7482    2.0841  -18.6042 O   0  0  0  0  0
   -6.3369    4.4012  -19.7112 O   0  0  0  0  0
   -3.0830    5.2849  -19.0930 O   0  0  0  0  0
   -0.7756    6.3952  -18.5662 O   0  0  0  0  0
   -2.4698    6.2946  -16.5804 O   0  0  0  0  0
   -2.8036    8.0283  -18.6960 O   0  0  0  0  0
   -3.8461    3.4827  -17.4157 O   0  0  0  0  0
   -8.8298   -0.4180  -18.2507 O   0  0  0  0  0
   -6.8061   -3.2930  -17.2194 O   0  0  0  0  0
   -5.6626   -5.1217  -23.6562 O   0  0  0  0  0
   -7.3389   -6.9016  -18.3483 O   0  0  0  0  0
   -7.9533  -11.7051  -19.1795 O   0  0  0  0  0
   -2.6790  -11.2941  -18.1829 O   0  0  0  0  0
   -2.9054  -14.5806  -18.3813 O   0  0  0  0  0
   -2.5004  -14.9362  -15.5087 O   0  0  0  0  0
   -3.2386  -17.1195  -16.7801 O   0  0  0  0  0
   -2.6300  -17.3985  -14.2633 O   0  0  0  0  0
   -4.9618  -16.1822  -15.0607 O   0  0  0  0  0
   -6.5143  -12.1395  -19.9572 P   0  0  0  0  0
   -5.9412   -5.1184  -21.9872 P   0  0  0  0  0
   -7.5072    0.5694  -17.8765 P   0  0  0  0  0
   -2.2468    6.4983  -18.2442 P   0  0  0  0  0
   -3.3304  -16.4169  -15.4464 P   0  0  0  0  0
  5 22  1  0  0  0
  6 33  1  0  0  0
 11 43  1  0  0  0
 16 53  1  0  0  0
 21  2  1  0  0  0
 22 23  1  0  0  0
 23  4  1  0  0  0
 24  3  1  0  0  0
 24  1  1  0  0  0
 25  5  1  0  0  0
 26  5  1  0  0  0
 26 27  1  0  0  0
 26 84  1  0  0  0
 27 61  1  0  0  0
 27 58  1  0  0  0
 28 63  1  0  0  0
 29 28  1  0  0  0
 29 30  1  0  0  0
 29 64  1  0  0  0
 30 31  1  0  0  0
 30 81  1  0  0  0
 31 32  1  0  0  0
 31 65  1  0  0  0
 32  6  1  0  0  0
 32 64  1  0  0  0
 34  7  1  0  0  0
 35  8  1  0  0  0
 35 10  1  0  0  0
 36  9  1  0  0  0
 36 33  1  0  0  0
 37  6  1  0  0  0
 38 67  1  0  0  0
 39 38  1  0  0  0
 39 40  1  0  0  0
 39 68  1  0  0  0
 40 41  1  0  0  0
 40 79  1  0  0  0
 41 42  1  0  0  0
 41 69  1  0  0  0
 42 11  1  0  0  0
 42 68  1  0  0  0
 44 12  1  0  0  0
 45 13  1  0  0  0
 45 15  1  0  0  0
 46 14  1  0  0  0
 46 43  1  0  0  0
 47 11  1  0  0  0
 48 71  1  0  0  0
 49 48  1  0  0  0
 49 50  1  0  0  0
 49 72  1  0  0  0
 50 51  1  0  0  0
 50 77  1  0  0  0
 51 52  1  0  0  0
 51 73  1  0  0  0
 52 16  1  0  0  0
 52 72  1  0  0  0
 54 17  1  0  0  0
 55 18  1  0  0  0
 55 20  1  0  0  0
 56 19  1  0  0  0
 56 53  1  0  0  0
 57 16  1  0  0  0
 58 83  1  0  0  0
 58 59  1  0  0  0
 59 84  1  0  0  0
 59 60  1  0  0  0
 60 85  1  0  0  0
 89 61  1  0  0  0
 89 63  1  0  0  0
 89 82  1  0  0  0
 90 65  1  0  0  0
 90 67  1  0  0  0
 90 80  1  0  0  0
 91 69  1  0  0  0
 91 71  1  0  0  0
 91 78  1  0  0  0
 92 73  1  0  0  0
 92 75  1  0  0  0
 92 76  1  0  0  0
 93 85  1  0  0  0
 93 87  1  0  0  0
 93 88  1  0  0  0
 21  1  2  0  0  0
 22  2  2  0  0  0
 23 24  2  0  0  0
 25  4  2  0  0  0
 33  7  2  0  0  0
 34  8  2  0  0  0
 35 36  2  0  0  0
 37  9  2  0  0  0
 43 12  2  0  0  0
 44 13  2  0  0  0
 45 46  2  0  0  0
 47 14  2  0  0  0
 53 17  2  0  0  0
 54 18  2  0  0  0
 55 56  2  0  0  0
 57 19  2  0  0  0
 89 62  2  0  0  0
 90 66  2  0  0  0
 91 70  2  0  0  0
 92 74  2  0  0  0
 93 86  2  0  0  0
M  END
> <rmsd>
0.621634007

$$$$
CHEMBL448348 PubChem-135398585 PubChem-137017663 PubChem-137205854


 55 60  0  0  0  0  0  0  0  0999 V2000
   -5.5873  -11.0260  -17.9773 P   0  0  0  0  0
   -4.0312   -8.7649  -18.0961 P   0  0  0  0  0
   -4.8218   -6.8453  -19.9103 P   0  0  0  0  0
   -6.9217   -5.0980  -19.5713 P   0  0  0  0  0
   -6.3813  -10.6263  -16.7526 O   0  0  0  0  0
   -5.5282  -12.7182  -18.0780 O   0  0  0  0  0
   -8.8044  -13.6463  -20.7369 O   0  0  0  0  0
   -8.4288  -16.0835  -21.4934 O   0  0  0  0  0
   -6.2917  -15.3489  -18.9658 O   0  0  0  0  0
   -5.8974  -21.2287  -16.4287 O   0  0  0  0  0
   -6.3383  -10.4114  -19.3667 O   0  0  0  0  0
   -3.9923  -10.4465  -17.8379 O   0  0  0  0  0
   -2.6783   -8.2004  -17.7274 O   0  0  0  0  0
   -5.2050   -8.0489  -17.1042 O   0  0  0  0  0
   -4.3234   -8.4650  -19.7486 O   0  0  0  0  0
   -3.8452   -5.9234  -19.2108 O   0  0  0  0  0
   -4.8394   -6.4755  -21.5614 O   0  0  0  0  0
   -6.3844   -6.6808  -19.2528 O   0  0  0  0  0
   -8.2643   -4.9109  -18.8998 O   0  0  0  0  0
   -5.8244   -3.9624  -18.9473 O   0  0  0  0  0
   -8.4690   -0.6516  -18.1551 O   0  0  0  0  0
   -7.1389    0.6801  -16.3645 O   0  0  0  0  0
   -5.0758   -1.4879  -17.6799 O   0  0  0  0  0
   -1.0945    2.5233  -20.6936 O   0  0  0  0  0
   -7.1118   -4.8714  -21.2391 O   0  0  0  0  0
   -6.8497  -13.1263  -18.2722 C   0  0  0  0  0
   -6.9122  -14.1608  -19.3806 C   0  0  0  0  0
   -8.3494  -14.4734  -19.7057 C   0  0  0  0  0
   -8.3113  -15.9260  -20.1096 C   0  0  0  0  0
   -6.9283  -16.3849  -19.6746 C   0  0  0  0  0
   -8.0746  -18.2159  -18.3248 C   0  0  0  0  0
   -6.4049  -19.3551  -17.6801 C   0  0  0  0  0
   -5.5074  -20.2598  -17.1314 C   0  0  0  0  0
   -3.7397  -19.0103  -18.1359 C   0  0  0  0  0
   -5.9513  -18.3253  -18.4254 C   0  0  0  0  0
   -6.3377   -2.7133  -19.3047 C   0  0  0  0  0
   -6.3819   -1.8081  -18.0881 C   0  0  0  0  0
   -7.1039   -0.5328  -18.4309 C   0  0  0  0  0
   -6.4341    0.4908  -17.5571 C   0  0  0  0  0
   -5.0975   -0.1498  -17.2368 C   0  0  0  0  0
   -3.0120    1.2538  -17.2079 C   0  0  0  0  0
   -2.6212    1.5225  -19.2792 C   0  0  0  0  0
   -2.1366    1.8333  -20.5418 C   0  0  0  0  0
   -3.9604    0.6045  -21.4699 C   0  0  0  0  0
   -3.7402    0.7784  -19.1536 C   0  0  0  0  0
   -6.9849  -17.5896  -18.8471 N   0  0  0  0  0
   -7.7469  -19.3187  -17.5932 N   0  0  0  0  0
   -4.1773  -20.0652  -17.3745 N   0  0  0  0  0
   -2.3479  -18.8375  -18.3693 N   0  0  0  0  0
   -4.6337  -18.1244  -18.6721 N   0  0  0  0  0
   -4.0083    0.5977  -17.8542 N   0  0  0  0  0
   -2.1308    1.8435  -18.0667 N   0  0  0  0  0
   -2.8262    1.3631  -21.6235 N   0  0  0  0  0
   -4.6546    0.1312  -22.6177 N   0  0  0  0  0
   -4.4283    0.3033  -20.2202 N   0  0  0  0  0
  1  6  1  0  0  0
  1 11  1  0  0  0
  1 12  1  0  0  0
  2 12  1  0  0  0
  2 14  1  0  0  0
  2 15  1  0  0  0
  3 15  1  0  0  0
  3 17  1  0  0  0
  3 18  1  0  0  0
  4 18  1  0  0  0
  4 20  1  0  0  0
  4 25  1  0  0  0
 26  6  1  0  0  0
 27 26  1  0  0  0
 27 28  1  0  0  0
 27  9  1  0  0  0
 28  7  1  0  0  0
 28 29  1  0  0  0
 29  8  1  0  0  0
 29 30  1  0  0  0
 30  9  1  0  0  0
 30 46  1  0  0  0
 32 47  1  0  0  0
 32 33  1  0  0  0
 33 48  1  0  0  0
 34 49  1  0  0  0
 35 50  1  0  0  0
 35 46  1  0  0  0
 36 20  1  0  0  0
 37 36  1  0  0  0
 37 38  1  0  0  0
 37 23  1  0  0  0
 38 21  1  0  0  0
 38 39  1  0  0  0
 39 22  1  0  0  0
 39 40  1  0  0  0
 40 23  1  0  0  0
 40 51  1  0  0  0
 42 52  1  0  0  0
 42 43  1  0  0  0
 43 53  1  0  0  0
 44 54  1  0  0  0
 45 55  1  0  0  0
 45 51  1  0  0  0
 46 31  1  0  0  0
 48 34  1  0  0  0
 51 41  1  0  0  0
 53 44  1  0  0  0
  1  5  2  0  0  0
  2 13  2  0  0  0
  3 16  2  0  0  0
  4 19  2  0  0  0
 31 47  2  0  0  0
 33 10  2  0  0  0
 34 50  2  0  0  0
 35 32  2  0  0  0
 41 52  2  0  0  0
 43 24  2  0  0  0
 44 55  2  0  0  0
 45 42  2  0  0  0
M  END
> <rmsd>
0.684387445

$$$$
CHEMBL364095 PubChem-44396958


 44 48  0  0  0  0  0  0  0  0999 V2000
   -4.2277   -2.3493  -16.3259 C   0  0  0  0  0
   -6.1877   -1.6105  -16.8940 C   0  0  0  0  0
   -6.0523   -2.8815  -17.4672 C   0  0  0  0  0
   -4.7937   -3.3354  -17.0908 C   0  0  0  0  0
   -4.1076   -4.5305  -17.3321 C   0  0  0  0  0
   -2.8127   -4.6514  -16.7706 C   0  0  0  0  0
   -2.9473   -2.5262  -15.7845 C   0  0  0  0  0
   -2.0767   -5.8181  -16.9846 C   0  0  0  0  0
   -2.6110   -6.8726  -17.7449 C   0  0  0  0  0
   -3.8988   -6.7546  -18.2928 C   0  0  0  0  0
   -4.6407   -5.5824  -18.0803 C   0  0  0  0  0
   -5.7123   -7.7692  -19.6389 C   0  0  0  0  0
   -0.5728   -8.2475  -17.4498 C   0  0  0  0  0
   -7.0482   -3.6026  -18.2753 C   0  0  0  0  0
   -6.7636   -3.9455  -19.6011 C   0  0  0  0  0
   -7.7047   -4.6388  -20.3789 C   0  0  0  0  0
   -8.9452   -4.9838  -19.8204 C   0  0  0  0  0
   -9.2288   -4.6322  -18.4903 C   0  0  0  0  0
   -8.2858   -3.9460  -17.7229 C   0  0  0  0  0
  -11.1548   -6.0618  -20.1135 C   0  0  0  0  0
   -6.1896   -4.6990  -22.3356 C   0  0  0  0  0
   -7.3497   -0.7057  -17.0527 C   0  0  0  0  0
   -4.7357   -0.0069  -15.5861 C   0  0  0  0  0
   -4.4720    1.0530  -16.6547 C   0  0  0  0  0
   -3.2950    0.6999  -17.5017 C   0  0  0  0  0
   -2.0008    0.7473  -16.9753 C   0  0  0  0  0
   -0.8962    0.3886  -17.7651 C   0  0  0  0  0
   -1.0970   -0.0138  -19.0951 C   0  0  0  0  0
   -2.3995   -0.0483  -19.6202 C   0  0  0  0  0
   -3.4919    0.3080  -18.8273 C   0  0  0  0  0
   -0.1088   -0.7972  -21.2257 C   0  0  0  0  0
    0.6909    0.8036  -15.9112 C   0  0  0  0  0
   -5.0604   -1.2936  -16.2017 N   0  0  0  0  0
   -8.2561   -0.8772  -18.1424 N   0  0  0  0  0
   -9.3594   -0.0306  -18.3067 N   0  0  0  0  0
   -2.2935   -3.6632  -16.0335 O   0  0  0  0  0
   -2.4149   -1.6449  -15.0606 O   0  0  0  0  0
   -4.4212   -7.8121  -19.0457 O   0  0  0  0  0
   -1.8811   -8.0456  -17.9668 O   0  0  0  0  0
   -9.8779   -5.6742  -20.6022 O   0  0  0  0  0
   -7.4272   -4.9955  -21.7028 O   0  0  0  0  0
   -7.5380    0.2291  -16.2289 O   0  0  0  0  0
    0.0081   -0.3735  -19.8742 O   0  0  0  0  0
    0.4040    0.4215  -17.2496 O   0  0  0  0  0
  1 33  1  0  0  0
  2 22  1  0  0  0
  3  4  1  0  0  0
  3 14  1  0  0  0
  4  5  1  0  0  0
  6 36  1  0  0  0
  6  8  1  0  0  0
  7 36  1  0  0  0
  7  1  1  0  0  0
  9 10  1  0  0  0
  9 39  1  0  0  0
 10 38  1  0  0  0
 11  5  1  0  0  0
 12 38  1  0  0  0
 13 39  1  0  0  0
 15 16  1  0  0  0
 16 41  1  0  0  0
 17 18  1  0  0  0
 17 40  1  0  0  0
 19 14  1  0  0  0
 20 40  1  0  0  0
 21 41  1  0  0  0
 22 34  1  0  0  0
 23 33  1  0  0  0
 23 24  1  0  0  0
 24 25  1  0  0  0
 26 27  1  0  0  0
 27 44  1  0  0  0
 28 29  1  0  0  0
 28 43  1  0  0  0
 30 25  1  0  0  0
 31 43  1  0  0  0
 32 44  1  0  0  0
 33  2  1  0  0  0
 34 35  1  0  0  0
  2  3  2  0  0  0
  4  1  2  0  0  0
  5  6  2  0  0  0
  7 37  2  0  0  0
  8  9  2  0  0  0
 10 11  2  0  0  0
 14 15  2  0  0  0
 16 17  2  0  0  0
 18 19  2  0  0  0
 22 42  2  0  0  0
 25 26  2  0  0  0
 27 28  2  0  0  0
 29 30  2  0  0  0
M  END
> <rmsd>
0.578871727

$$$$
CHEMBL3542421 PubChem-118753515


 63 67  0  0  0  0  0  0  0  0999 V2000
   -0.2963   -3.1588  -20.6011 C   0  0  0  0  0
    2.2088   -3.5110  -20.8890 C   0  0  0  0  0
    2.2437   -4.5124  -21.9985 C   0  0  0  0  0
    3.0844   -5.6831  -21.6109 C   0  0  0  0  0
    4.4046   -5.7670  -22.0655 C   0  0  0  0  0
    5.2123   -6.8360  -21.6679 C   0  0  0  0  0
    4.7090   -7.8275  -20.8028 C   0  0  0  0  0
    3.3869   -7.7372  -20.3494 C   0  0  0  0  0
    2.5764   -6.6689  -20.7486 C   0  0  0  0  0
    6.8574   -9.1010  -20.7571 C   0  0  0  0  0
    1.1804   -3.9252  -18.6919 C   0  0  0  0  0
    1.2480   -2.8241  -17.6844 C   0  0  0  0  0
    0.3154   -2.7836  -16.6441 C   0  0  0  0  0
    1.2995   -0.7965  -15.7917 C   0  0  0  0  0
    2.2574   -0.8081  -16.8092 C   0  0  0  0  0
    2.2304   -1.8315  -17.7586 C   0  0  0  0  0
   -0.2736   -2.6278  -22.0324 C   0  0  0  0  0
   -1.0701   -2.2071  -19.7287 C   0  0  0  0  0
   -1.1869   -0.0811  -18.6952 C   0  0  0  0  0
   -1.2314    2.0497  -17.6481 C   0  0  0  0  0
   -2.3885    1.7065  -16.9445 C   0  0  0  0  0
   -2.9469    0.4404  -17.1245 C   0  0  0  0  0
   -2.3453   -0.4681  -18.0041 C   0  0  0  0  0
   -2.8499   -1.7548  -18.2137 C   0  0  0  0  0
   -2.7049   -3.9482  -19.2439 C   0  0  0  0  0
   -3.4908   -4.2899  -20.3616 C   0  0  0  0  0
   -5.3220   -2.4143  -20.7346 C   0  0  0  0  0
   -6.4800   -3.4005  -20.7345 C   0  0  0  0  0
   -7.8476   -4.6325  -22.4725 C   0  0  0  0  0
   -8.3584   -4.6988  -23.8701 C   0  0  0  0  0
   -9.8570   -4.4425  -23.8877 C   0  0  0  0  0
  -10.3462   -4.0793  -25.2830 C   0  0  0  0  0
  -10.5781   -5.2984  -26.1128 C   0  0  0  0  0
   -7.5256   -2.9421  -19.7622 C   0  0  0  0  0
   -8.1297   -2.4096  -17.3589 C   0  0  0  0  0
   -8.0879   -0.9203  -17.3850 C   0  0  0  0  0
   -3.9585   -5.5994  -20.5048 C   0  0  0  0  0
   -3.6501   -6.5702  -19.5483 C   0  0  0  0  0
   -2.8622   -6.2351  -18.4408 C   0  0  0  0  0
   -2.3935   -4.9283  -18.2904 C   0  0  0  0  0
    1.0520   -3.4004  -20.0508 N   0  0  0  0  0
    0.3566   -1.7773  -15.7287 N   0  0  0  0  0
   -0.5819   -0.9516  -19.5372 N   0  0  0  0  0
   -0.6593    1.1569  -18.5011 N   0  0  0  0  0
   -2.2050   -2.6112  -19.0696 N   0  0  0  0  0
   -7.0220   -3.5351  -22.0827 N   0  0  0  0  0
   -8.0604   -5.9993  -24.4424 N   0  0  0  0  0
   -7.2263   -2.9509  -18.3634 N   0  0  0  0  0
    3.2303   -2.8103  -20.6472 O   0  0  0  0  0
    5.4958   -8.9053  -20.3751 O   0  0  0  0  0
   -3.8960   -2.1209  -17.6112 O   0  0  0  0  0
   -8.1556   -5.5263  -21.6402 O   0  0  0  0  0
  -11.4149   -6.1656  -25.7465 O   0  0  0  0  0
   -9.8750   -5.4723  -27.2964 O   0  0  0  0  0
   -8.6498   -2.5369  -20.1684 O   0  0  0  0  0
   -7.1315   -0.3120  -16.8452 O   0  0  0  0  0
   -9.0852   -0.2039  -18.0363 O   0  0  0  0  0
   -2.5296   -7.2015  -17.4974 O   0  0  0  0  0
   -4.1232   -7.8659  -19.7077 O   0  0  0  0  0
    6.9465   -9.2504  -22.1288 F   0  0  0  0  0
    7.6235   -8.0232  -20.3540 F   0  0  0  0  0
    7.3374  -10.2429  -20.1484 F   0  0  0  0  0
   -3.8866   -3.0843  -21.6334 S   0  0  0  0  0
  1 41  1  0  0  0
  1 17  1  0  0  0
  1 18  1  0  0  0
  3  2  1  0  0  0
  3  4  1  0  0  0
  5  6  1  0  0  0
  7  8  1  0  0  0
  7 50  1  0  0  0
  9  4  1  0  0  0
 10 50  1  0  0  0
 10 60  1  0  0  0
 10 61  1  0  0  0
 10 62  1  0  0  0
 11 41  1  0  0  0
 11 12  1  0  0  0
 13 42  1  0  0  0
 14 15  1  0  0  0
 16 12  1  0  0  0
 19 43  1  0  0  0
 20 44  1  0  0  0
 21 22  1  0  0  0
 23 24  1  0  0  0
 23 19  1  0  0  0
 24 45  1  0  0  0
 26 63  1  0  0  0
 26 37  1  0  0  0
 27 63  1  0  0  0
 28 27  1  0  0  0
 28 46  1  0  0  0
 28 34  1  0  0  0
 30 29  1  0  0  0
 30 47  1  0  0  0
 30 31  1  0  0  0
 31 32  1  0  0  0
 32 33  1  0  0  0
 33 54  1  0  0  0
 34 48  1  0  0  0
 35 48  1  0  0  0
 35 36  1  0  0  0
 36 57  1  0  0  0
 38 39  1  0  0  0
 38 59  1  0  0  0
 39 58  1  0  0  0
 40 25  1  0  0  0
 41  2  1  0  0  0
 45 25  1  0  0  0
 45 18  1  0  0  0
 46 29  1  0  0  0
  2 49  2  0  0  0
  4  5  2  0  0  0
  6  7  2  0  0  0
  8  9  2  0  0  0
 12 13  2  0  0  0
 14 42  2  0  0  0
 15 16  2  0  0  0
 18 43  2  0  0  0
 19 44  2  0  0  0
 20 21  2  0  0  0
 22 23  2  0  0  0
 24 51  2  0  0  0
 25 26  2  0  0  0
 29 52  2  0  0  0
 33 53  2  0  0  0
 34 55  2  0  0  0
 36 56  2  0  0  0
 37 38  2  0  0  0
 39 40  2  0  0  0
M  END
> <rmsd>
0.700980961

$$$$
CHEMBL1161683


 86 96  0  0  0  0  0  0  0  0999 V2000
   -6.4734   -6.9705  -22.9379 N   0  0  0  0  0
    0.1032  -10.6540  -19.2854 N   0  0  0  0  0
    0.4590  -11.6312  -21.2966 N   0  0  0  0  0
    0.6818  -14.6356  -19.2387 N   0  0  0  0  0
    0.2572  -12.6752  -17.9581 N   0  0  0  0  0
    0.9353  -14.5624  -21.6462 N   0  0  0  0  0
   -3.7355   -0.1173  -17.6188 N   0  0  0  0  0
   -2.0161    0.7529  -18.8009 N   0  0  0  0  0
   -4.5491    3.2303  -19.6936 N   0  0  0  0  0
   -5.3802    1.5527  -18.2235 N   0  0  0  0  0
   -2.2543    3.2269  -20.4730 N   0  0  0  0  0
  -10.5007    3.6335  -21.5936 N   0  0  0  0  0
  -10.7909    5.7688  -20.8986 N   0  0  0  0  0
  -13.3017    5.7442  -23.5537 N   0  0  0  0  0
  -12.1782    3.6600  -23.3333 N   0  0  0  0  0
  -12.7791    7.6328  -22.1282 N   0  0  0  0  0
   -8.5395   -7.4960  -23.6977 N   0  0  0  0  0
   -8.5663   -9.5785  -20.6953 N   0  0  0  0  0
   -6.5454   -8.3458  -20.9443 N   0  0  0  0  0
  -10.3619   -9.4204  -22.3139 N   0  0  0  0  0
   -5.1948   -6.2823  -22.8125 C   0  0  0  0  0
   -5.2866   -5.1798  -21.7906 C   0  0  0  0  0
   -3.8721   -5.0757  -21.2823 C   0  0  0  0  0
   -3.2712   -6.4204  -21.6533 C   0  0  0  0  0
   -2.8483   -7.1880  -20.4079 C   0  0  0  0  0
   -1.4952   -9.8456  -17.6202 C   0  0  0  0  0
   -0.1448   -9.6226  -18.2828 C   0  0  0  0  0
    0.2737  -11.9711  -19.1164 C   0  0  0  0  0
    0.4807  -12.5529  -20.3184 C   0  0  0  0  0
    0.2216  -10.4689  -20.6252 C   0  0  0  0  0
    0.6939  -13.9190  -20.4012 C   0  0  0  0  0
    0.4650  -14.0243  -18.0301 C   0  0  0  0  0
    0.2495   -9.6833  -16.0563 C   0  0  0  0  0
   -1.1088  -10.3022  -16.2420 C   0  0  0  0  0
    1.0747  -10.5174  -15.0946 C   0  0  0  0  0
   -6.2311   -3.5047  -19.1634 C   0  0  0  0  0
   -5.1475   -2.9358  -18.2594 C   0  0  0  0  0
   -5.6290   -1.6649  -17.5502 C   0  0  0  0  0
   -4.5033   -1.0071  -16.7593 C   0  0  0  0  0
   -4.1483    0.9880  -18.2496 C   0  0  0  0  0
   -3.1231    1.5031  -18.9595 C   0  0  0  0  0
   -2.4307   -0.2417  -17.9642 C   0  0  0  0  0
   -3.3111    2.6537  -19.7111 C   0  0  0  0  0
   -5.5742    2.6914  -18.9569 C   0  0  0  0  0
   -8.9915    0.4166  -18.8322 C   0  0  0  0  0
   -9.1870    0.7038  -20.3117 C   0  0  0  0  0
  -10.0168    2.2627  -21.6883 C   0  0  0  0  0
  -11.4484    4.2127  -22.3334 C   0  0  0  0  0
  -11.6217    5.4857  -21.9202 C   0  0  0  0  0
  -10.1119    4.6002  -20.7186 C   0  0  0  0  0
  -12.5660    6.2882  -22.5391 C   0  0  0  0  0
  -13.1163    4.4435  -23.9471 C   0  0  0  0  0
   -8.5285    2.2427  -21.9906 C   0  0  0  0  0
   -7.9641    1.3755  -20.8924 C   0  0  0  0  0
   -7.0477   -7.8388  -22.0961 C   0  0  0  0  0
   -8.2773   -8.1578  -22.5554 C   0  0  0  0  0
   -7.4061   -6.7646  -23.9025 C   0  0  0  0  0
   -9.0706   -9.0513  -21.8503 C   0  0  0  0  0
   -7.3190   -9.2297  -20.2419 C   0  0  0  0  0
   -4.1942   -7.1771  -22.4055 O   0  0  0  0  0
   -3.9616   -7.4698  -19.6093 O   0  0  0  0  0
   -4.2997  -10.0432  -18.6618 O   0  0  0  0  0
   -2.1764   -8.6227  -17.5648 O   0  0  0  0  0
    0.8812   -9.6317  -17.3116 O   0  0  0  0  0
   -1.9991   -9.8459  -15.2674 O   0  0  0  0  0
    2.1672   -9.7626  -14.6571 O   0  0  0  0  0
    1.6835  -11.2147  -12.4833 O   0  0  0  0  0
    3.8854  -11.7644  -13.7920 O   0  0  0  0  0
    3.6005   -9.4434  -12.3201 O   0  0  0  0  0
   -3.1665   -4.0698  -21.9489 O   0  0  0  0  0
   -5.7246   -3.9921  -22.3923 O   0  0  0  0  0
   -7.9504   -4.6502  -21.0884 O   0  0  0  0  0
   -6.5737   -2.5782  -20.1543 O   0  0  0  0  0
   -6.6818   -1.9807  -16.6825 O   0  0  0  0  0
   -7.6196    0.4365  -16.2878 O   0  0  0  0  0
   -8.0240   -0.5783  -18.6783 O   0  0  0  0  0
  -10.2685    1.5753  -20.4853 O   0  0  0  0  0
   -7.0554    0.4295  -21.3764 O   0  0  0  0  0
   -8.3233    1.6830  -23.2542 O   0  0  0  0  0
   -9.3855   -1.4811  -16.4458 O   0  0  0  0  0
   -4.0055   -2.6796  -19.0196 O   0  0  0  0  0
   -8.0089   -2.4622  -22.5015 O   0  0  0  0  0
   -3.4848   -8.7699  -18.6356 P   0  0  0  0  0
    2.7878  -10.5688  -13.2953 P   0  0  0  0  0
   -7.0825   -3.4742  -21.5067 P   0  0  0  0  0
   -7.9171   -0.8580  -17.0093 P   0  0  0  0  0
  1 55  1  0  0  0
  2 28  1  0  0  0
  7 40  1  0  0  0
 12 48  1  0  0  0
 21  1  1  0  0  0
 21 22  1  0  0  0
 21 60  1  0  0  0
 22 23  1  0  0  0
 22 71  1  0  0  0
 23 24  1  0  0  0
 23 70  1  0  0  0
 24 60  1  0  0  0
 24 25  1  0  0  0
 25 61  1  0  0  0
 26 63  1  0  0  0
 26 27  1  0  0  0
 27  2  1  0  0  0
 27 64  1  0  0  0
 28  5  1  0  0  0
 29  3  1  0  0  0
 29 31  1  0  0  0
 30  2  1  0  0  0
 31  6  1  0  0  0
 32  4  1  0  0  0
 33 64  1  0  0  0
 33 34  1  0  0  0
 33 35  1  0  0  0
 34 65  1  0  0  0
 34 26  1  0  0  0
 35 66  1  0  0  0
 36 73  1  0  0  0
 36 37  1  0  0  0
 37 38  1  0  0  0
 37 81  1  0  0  0
 38 39  1  0  0  0
 38 74  1  0  0  0
 39  7  1  0  0  0
 40 10  1  0  0  0
 41  8  1  0  0  0
 41 43  1  0  0  0
 42  7  1  0  0  0
 43 11  1  0  0  0
 44  9  1  0  0  0
 45 76  1  0  0  0
 46 45  1  0  0  0
 46 77  1  0  0  0
 47 77  1  0  0  0
 47 12  1  0  0  0
 47 53  1  0  0  0
 48 15  1  0  0  0
 49 13  1  0  0  0
 49 51  1  0  0  0
 50 12  1  0  0  0
 51 16  1  0  0  0
 52 14  1  0  0  0
 53 54  1  0  0  0
 53 79  1  0  0  0
 54 78  1  0  0  0
 54 46  1  0  0  0
 55 19  1  0  0  0
 56 17  1  0  0  0
 56 58  1  0  0  0
 57  1  1  0  0  0
 58 20  1  0  0  0
 59 18  1  0  0  0
 83 61  1  0  0  0
 83 63  1  0  0  0
 84 66  1  0  0  0
 84 68  1  0  0  0
 84 69  1  0  0  0
 85 71  1  0  0  0
 85 73  1  0  0  0
 85 82  1  0  0  0
 86 74  1  0  0  0
 86 76  1  0  0  0
 86 80  1  0  0  0
 28 29  2  0  0  0
 30  3  2  0  0  0
 31  4  2  0  0  0
 32  5  2  0  0  0
 40 41  2  0  0  0
 42  8  2  0  0  0
 43  9  2  0  0  0
 44 10  2  0  0  0
 48 49  2  0  0  0
 50 13  2  0  0  0
 51 14  2  0  0  0
 52 15  2  0  0  0
 55 56  2  0  0  0
 57 17  2  0  0  0
 58 18  2  0  0  0
 59 19  2  0  0  0
 83 62  2  0  0  0
 84 67  2  0  0  0
 85 72  2  0  0  0
 86 75  2  0  0  0
M  END
> <rmsd>
0.850737631

$$$$
CHEMBL499145 95540730 LN01343234 MCULE-8439700388 MolPort-001-740-817 PubChem-10373017 ZINC000095540730


 54 58  0  0  0  0  0  0  0  0999 V2000
   -2.5020    2.3315  -19.8294 C   0  0  0  0  0
   -1.6259    3.1705  -19.1349 C   0  0  0  0  0
   -1.2373    2.8477  -17.8266 C   0  0  0  0  0
   -1.7260    1.6865  -17.2192 C   0  0  0  0  0
   -2.6016    0.8421  -17.9115 C   0  0  0  0  0
   -3.0954   -0.3668  -17.2396 C   0  0  0  0  0
   -3.9196   -1.2287  -17.8302 C   0  0  0  0  0
   -4.4140   -2.4322  -17.1443 C   0  0  0  0  0
   -5.8463   -3.0574  -19.0707 C   0  0  0  0  0
   -7.2306   -2.3899  -19.0066 C   0  0  0  0  0
   -7.1387   -1.0223  -18.3500 C   0  0  0  0  0
   -8.6911   -0.5493  -16.7409 C   0  0  0  0  0
   -8.9236   -1.9727  -16.1895 C   0  0  0  0  0
   -8.7216   -1.9932  -14.6728 C   0  0  0  0  0
   -7.3567   -1.4083  -14.2952 C   0  0  0  0  0
   -6.8074   -0.4723  -15.3842 C   0  0  0  0  0
   -5.7586    0.4516  -14.7949 C   0  0  0  0  0
   -8.0984   -3.5434  -20.7281 C   0  0  0  0  0
  -10.2120   -3.6554  -21.4044 C   0  0  0  0  0
  -10.6701   -5.0891  -21.6560 C   0  0  0  0  0
  -10.9564   -5.3311  -23.1017 C   0  0  0  0  0
   -9.9228   -5.3281  -24.0472 C   0  0  0  0  0
  -10.2040   -5.5719  -25.3948 C   0  0  0  0  0
  -11.5174   -5.8286  -25.8006 C   0  0  0  0  0
  -12.5508   -5.8493  -24.8541 C   0  0  0  0  0
  -12.2671   -5.6008  -23.5073 C   0  0  0  0  0
   -6.8248   -4.3282  -21.0435 C   0  0  0  0  0
   -5.9481   -4.4098  -19.7910 C   0  0  0  0  0
   -4.3806   -5.9007  -19.2705 C   0  0  0  0  0
   -4.0320   -7.1626  -20.0707 C   0  0  0  0  0
   -2.9672   -8.0004  -19.3462 C   0  0  0  0  0
   -3.1501   -7.9308  -17.8303 C   0  0  0  0  0
   -3.2153   -6.4674  -17.3606 C   0  0  0  0  0
   -4.3055   -6.2694  -16.3176 C   0  0  0  0  0
   -2.9896    1.1707  -19.2212 C   0  0  0  0  0
   -0.3665    3.6745  -17.1268 O   0  0  0  0  0
   -4.0003   -2.7156  -15.9886 O   0  0  0  0  0
   -5.3428   -3.2777  -17.7561 O   0  0  0  0  0
   -8.4226   -0.5038  -18.1266 O   0  0  0  0  0
  -10.2046   -2.4177  -16.5242 O   0  0  0  0  0
   -9.7298   -1.2637  -14.0371 O   0  0  0  0  0
   -6.4531   -2.4475  -14.0735 O   0  0  0  0  0
   -7.8372    0.2930  -15.9726 O   0  0  0  0  0
   -7.7553   -2.2498  -20.3027 O   0  0  0  0  0
   -8.9044   -3.4663  -21.8678 O   0  0  0  0  0
  -11.7902   -6.0642  -27.1433 O   0  0  0  0  0
  -13.8558   -6.1194  -25.2450 O   0  0  0  0  0
   -7.1556   -5.6170  -21.4645 O   0  0  0  0  0
   -4.6692   -4.8513  -20.1473 O   0  0  0  0  0
   -5.1971   -7.9077  -20.2678 O   0  0  0  0  0
   -2.9843   -9.3250  -19.7857 O   0  0  0  0  0
   -2.0918   -8.5789  -17.1920 O   0  0  0  0  0
   -3.3194   -5.5269  -18.4186 O   0  0  0  0  0
   -1.1483    4.3239  -19.7450 O   0  0  0  0  0
  2  3  1  0  0  0
  2 54  1  0  0  0
  3 36  1  0  0  0
  4  5  1  0  0  0
  5  6  1  0  0  0
  7  8  1  0  0  0
  8 38  1  0  0  0
  9 38  1  0  0  0
  9 10  1  0  0  0
 10 11  1  0  0  0
 10 44  1  0  0  0
 11 39  1  0  0  0
 12 39  1  0  0  0
 12 13  1  0  0  0
 12 43  1  0  0  0
 13 40  1  0  0  0
 13 14  1  0  0  0
 14 41  1  0  0  0
 14 15  1  0  0  0
 15 42  1  0  0  0
 15 16  1  0  0  0
 16 17  1  0  0  0
 16 43  1  0  0  0
 18 44  1  0  0  0
 18 45  1  0  0  0
 18 27  1  0  0  0
 19 45  1  0  0  0
 19 20  1  0  0  0
 20 21  1  0  0  0
 22 23  1  0  0  0
 24 46  1  0  0  0
 24 25  1  0  0  0
 25 47  1  0  0  0
 26 21  1  0  0  0
 27 48  1  0  0  0
 27 28  1  0  0  0
 28 49  1  0  0  0
 28  9  1  0  0  0
 29 49  1  0  0  0
 29 30  1  0  0  0
 29 53  1  0  0  0
 30 50  1  0  0  0
 30 31  1  0  0  0
 31 51  1  0  0  0
 31 32  1  0  0  0
 32 52  1  0  0  0
 32 33  1  0  0  0
 33 34  1  0  0  0
 33 53  1  0  0  0
 35  1  1  0  0  0
  1  2  2  0  0  0
  3  4  2  0  0  0
  5 35  2  0  0  0
  6  7  2  0  0  0
  8 37  2  0  0  0
 21 22  2  0  0  0
 23 24  2  0  0  0
 25 26  2  0  0  0
M  END
> <rmsd>
0.758904934

$$$$
CHEMBL4764378 PubChem-162661471


 80 83  0  0  0  0  0  0  0  0999 V2000
   -6.2595   -5.8358  -19.6966 O   0  0  0  0  0
   -5.4830   -5.5805  -22.0140 O   0  0  0  0  0
   -5.8516   -3.3939  -20.5843 O   0  0  0  0  0
   -5.2144   -0.6861  -19.7708 O   0  0  0  0  0
   -8.5253   -1.2245  -21.1791 O   0  0  0  0  0
   -9.4163    0.0131  -18.9138 O   0  0  0  0  0
   -6.2423    0.5580  -21.4782 O   0  0  0  0  0
   -8.1605    2.5853  -19.1478 O   0  0  0  0  0
   -4.8387    0.2261  -17.2258 O   0  0  0  0  0
   -5.2091    1.2892  -14.8575 O   0  0  0  0  0
   -7.1603    0.3557  -16.0146 O   0  0  0  0  0
   -6.1912    2.6161  -16.8633 O   0  0  0  0  0
    3.4586    1.6781  -19.4928 O   0  0  0  0  0
    2.3295    2.6347  -21.2528 O   0  0  0  0  0
    1.5444   -1.0894  -21.4601 O   0  0  0  0  0
    0.5677   -4.3633  -17.8041 O   0  0  0  0  0
   -1.7805   -8.2132  -17.8107 O   0  0  0  0  0
    1.8380   -7.7495  -19.7202 O   0  0  0  0  0
    0.5940  -12.4808  -21.2126 O   0  0  0  0  0
   -2.6732  -10.3259  -20.4672 O   0  0  0  0  0
   -4.2378   -9.1292  -21.9281 O   0  0  0  0  0
   -4.2608   -8.5666  -19.3987 O   0  0  0  0  0
   -7.9519   -4.9759  -21.4685 O   0  0  0  0  0
   -6.3559   -4.9933  -20.9407 S   0  0  0  0  0
   -5.8716    1.1083  -16.1946 S   0  0  0  0  0
   -3.3348   -9.0013  -20.7335 S   0  0  0  0  0
   -4.6066   -3.0779  -20.0142 C   0  0  0  0  0
   -4.3421   -1.7635  -19.5437 C   0  0  0  0  0
   -6.2390   -0.6679  -20.7649 C   0  0  0  0  0
   -7.6134   -0.9711  -20.1533 C   0  0  0  0  0
   -8.0873    0.2051  -19.2959 C   0  0  0  0  0
   -7.9277    1.5323  -20.0366 C   0  0  0  0  0
   -6.4970    1.6170  -20.5854 C   0  0  0  0  0
   -6.2820    2.9353  -21.3043 C   0  0  0  0  0
   -3.1380   -1.5141  -18.8469 C   0  0  0  0  0
   -2.7389   -0.1641  -18.3908 C   0  0  0  0  0
   -1.4342    0.2486  -18.6827 C   0  0  0  0  0
   -0.9416    1.4818  -18.2626 C   0  0  0  0  0
   -1.7678    2.3188  -17.5108 C   0  0  0  0  0
   -3.0704    1.9183  -17.1902 C   0  0  0  0  0
   -3.5644    0.6684  -17.6104 C   0  0  0  0  0
    0.4919    1.8798  -18.5137 C   0  0  0  0  0
    1.1392    1.1214  -19.6748 C   0  0  0  0  0
    2.3753    1.8213  -20.1255 C   0  0  0  0  0
    1.6001   -1.3208  -20.2199 C   0  0  0  0  0
    1.8567   -2.7097  -19.7217 C   0  0  0  0  0
    3.1000   -3.2946  -20.3761 C   0  0  0  0  0
    0.0479   -4.2886  -18.9489 C   0  0  0  0  0
   -1.3256   -4.8561  -19.1963 C   0  0  0  0  0
   -2.0493   -5.5897  -16.8825 C   0  0  0  0  0
   -1.4857   -7.2965  -18.6252 C   0  0  0  0  0
   -0.9986   -7.6578  -20.0074 C   0  0  0  0  0
    1.2220   -8.8446  -19.8195 C   0  0  0  0  0
    1.9813  -10.1285  -19.7879 C   0  0  0  0  0
    2.6165  -10.4263  -21.1420 C   0  0  0  0  0
    0.6411  -11.6610  -22.1702 C   0  0  0  0  0
   -0.3167  -11.7909  -23.3062 C   0  0  0  0  0
   -0.2023  -13.1512  -23.9814 C   0  0  0  0  0
    1.0297  -13.2501  -24.8738 C   0  0  0  0  0
    2.2936  -13.5475  -24.0698 C   0  0  0  0  0
    2.2303  -14.9294  -23.4398 C   0  0  0  0  0
    2.4175  -16.0091  -24.4948 C   0  0  0  0  0
    2.1161  -17.3722  -23.9002 C   0  0  0  0  0
    3.2618  -17.8410  -23.0218 C   0  0  0  0  0
    2.8644  -19.1345  -22.3406 C   0  0  0  0  0
    4.0224  -19.6864  -21.5253 C   0  0  0  0  0
    4.9530  -20.5224  -22.3955 C   0  0  0  0  0
    6.0016  -19.6527  -23.0795 C   0  0  0  0  0
    7.0778  -19.2101  -22.1007 C   0  0  0  0  0
    7.9945  -20.3689  -21.7647 C   0  0  0  0  0
    9.0473  -19.9038  -20.7822 C   0  0  0  0  0
   -2.1116   -7.7348  -21.0567 C   0  0  0  0  0
   -2.4005   -3.7985  -19.2649 C   0  0  0  0  0
   -3.6188   -4.0718  -19.8846 C   0  0  0  0  0
   -2.1888   -2.5325  -18.7270 C   0  0  0  0  0
    1.4391   -0.2511  -19.2785 N   0  0  0  0  0
    0.7077   -3.5632  -19.9884 N   0  0  0  0  0
   -1.6669   -5.9213  -18.2495 N   0  0  0  0  0
   -0.1960   -8.8720  -19.9833 N   0  0  0  0  0
    1.6023  -10.6029  -22.1773 N   0  0  0  0  0
 24  3  1  0  0  0
 24 23  1  0  0  0
 25  9  1  0  0  0
 25 12  1  0  0  0
 26 22  1  0  0  0
 27  3  1  0  0  0
 28  4  1  0  0  0
 28 35  1  0  0  0
 29  4  1  0  0  0
 29 30  1  0  0  0
 29  7  1  0  0  0
 30  5  1  0  0  0
 30 31  1  0  0  0
 31  6  1  0  0  0
 31 32  1  0  0  0
 32 33  1  0  0  0
 32  8  1  0  0  0
 33 34  1  0  0  0
 33  7  1  0  0  0
 35 36  1  0  0  0
 37 38  1  0  0  0
 39 40  1  0  0  0
 41  9  1  0  0  0
 41 36  1  0  0  0
 42 38  1  0  0  0
 42 43  1  0  0  0
 43 44  1  0  0  0
 43 76  1  0  0  0
 44 14  1  0  0  0
 46 45  1  0  0  0
 46 47  1  0  0  0
 46 77  1  0  0  0
 49 48  1  0  0  0
 49 78  1  0  0  0
 49 73  1  0  0  0
 50 78  1  0  0  0
 52 51  1  0  0  0
 52 79  1  0  0  0
 52 72  1  0  0  0
 54 53  1  0  0  0
 54 55  1  0  0  0
 55 80  1  0  0  0
 57 56  1  0  0  0
 57 58  1  0  0  0
 58 59  1  0  0  0
 59 60  1  0  0  0
 60 61  1  0  0  0
 61 62  1  0  0  0
 62 63  1  0  0  0
 63 64  1  0  0  0
 64 65  1  0  0  0
 65 66  1  0  0  0
 66 67  1  0  0  0
 67 68  1  0  0  0
 68 69  1  0  0  0
 69 70  1  0  0  0
 70 71  1  0  0  0
 72 26  1  0  0  0
 73 75  1  0  0  0
 74 27  1  0  0  0
 76 45  1  0  0  0
 77 48  1  0  0  0
 78 51  1  0  0  0
 79 53  1  0  0  0
 80 56  1  0  0  0
 24  1  2  0  0  0
 24  2  2  0  0  0
 25 10  2  0  0  0
 25 11  2  0  0  0
 26 20  2  0  0  0
 26 21  2  0  0  0
 27 28  2  0  0  0
 36 37  2  0  0  0
 38 39  2  0  0  0
 40 41  2  0  0  0
 44 13  2  0  0  0
 45 15  2  0  0  0
 48 16  2  0  0  0
 51 17  2  0  0  0
 53 18  2  0  0  0
 56 19  2  0  0  0
 73 74  2  0  0  0
 75 35  2  0  0  0
M  END
> <rmsd>
0.550770164

$$$$
CHEMBL262525 PubChem-44315025


 78 81  0  0  0  0  0  0  0  0999 V2000
   -9.9455   -9.4726  -22.0306 C   0  0  0  0  0
   -9.4723   -8.4252  -21.0325 C   0  0  0  0  0
   -8.8119   -7.2600  -21.7517 C   0  0  0  0  0
   -7.4223   -7.6593  -22.2266 C   0  0  0  0  0
   -8.8046   -6.0189  -20.8455 C   0  0  0  0  0
   -6.5717   -6.0518  -19.5443 C   0  0  0  0  0
   -5.9100   -6.3992  -18.2488 C   0  0  0  0  0
   -3.8548   -7.7628  -18.7570 C   0  0  0  0  0
   -2.3595   -7.8628  -18.9218 C   0  0  0  0  0
   -1.7439   -6.5964  -19.5124 C   0  0  0  0  0
   -0.6109   -6.9512  -20.4558 C   0  0  0  0  0
    0.6584   -7.2632  -19.6818 C   0  0  0  0  0
   -0.3449   -5.8034  -21.4105 C   0  0  0  0  0
   -2.2493   -7.9960  -16.4571 C   0  0  0  0  0
   -1.3070   -9.7649  -17.8216 C   0  0  0  0  0
   -2.5580  -10.6442  -17.8563 C   0  0  0  0  0
   -2.7587  -11.2979  -16.5013 C   0  0  0  0  0
   -3.1389  -12.7445  -16.7831 C   0  0  0  0  0
   -2.7058  -13.0312  -18.2063 C   0  0  0  0  0
   -2.3110  -11.5795  -20.2275 C   0  0  0  0  0
   -1.7586  -10.3259  -20.8265 C   0  0  0  0  0
   -0.4119  -10.5837  -21.4762 C   0  0  0  0  0
   -6.2921   -5.4117  -17.1481 C   0  0  0  0  0
   -5.9760   -5.9893  -15.7788 C   0  0  0  0  0
   -6.2933   -2.9937  -17.6194 C   0  0  0  0  0
   -5.6607   -1.6681  -17.3452 C   0  0  0  0  0
   -4.1542   -1.7181  -17.6034 C   0  0  0  0  0
   -3.5885   -0.3470  -17.7667 C   0  0  0  0  0
   -3.4053    0.4908  -16.6585 C   0  0  0  0  0
   -2.8699    1.7699  -16.8237 C   0  0  0  0  0
   -2.5061    2.2234  -18.0961 C   0  0  0  0  0
   -1.6514    4.0799  -19.4930 C   0  0  0  0  0
   -2.6825    1.3782  -19.2075 C   0  0  0  0  0
   -3.2195    0.0998  -19.0434 C   0  0  0  0  0
   -5.5824   -2.0917  -14.8591 C   0  0  0  0  0
   -6.5953    0.0438  -15.7646 C   0  0  0  0  0
   -7.2206    0.4382  -14.4579 C   0  0  0  0  0
   -6.2288    0.4311  -13.3076 C   0  0  0  0  0
   -6.9133   -0.3248  -12.1738 C   0  0  0  0  0
   -8.0535   -1.1003  -12.8067 C   0  0  0  0  0
   -9.6255   -0.3099  -14.5776 C   0  0  0  0  0
  -10.0347    0.9598  -15.2733 C   0  0  0  0  0
  -10.7238    1.9061  -14.2960 C   0  0  0  0  0
   -9.7135    2.6563  -13.4426 C   0  0  0  0  0
   -9.6499    2.0445  -12.0597 C   0  0  0  0  0
  -10.1372    4.1051  -13.3333 C   0  0  0  0  0
  -10.5175    0.1049  -17.6116 C   0  0  0  0  0
  -11.4960    0.0253  -18.7412 C   0  0  0  0  0
  -11.0955    0.9946  -19.8436 C   0  0  0  0  0
  -11.7066   -1.3814  -19.2463 C   0  0  0  0  0
  -12.1753   -1.6114  -20.6653 C   0  0  0  0  0
  -13.5817   -2.2255  -20.7679 C   0  0  0  0  0
  -13.9572   -2.4411  -22.2237 C   0  0  0  0  0
  -14.6155   -1.3120  -20.1368 C   0  0  0  0  0
  -10.9135   -3.6778  -21.3197 C   0  0  0  0  0
   -9.9291   -4.2852  -22.2597 C   0  0  0  0  0
   -8.6426   -4.6632  -21.5439 C   0  0  0  0  0
   -7.9946   -6.1681  -19.6359 N   0  0  0  0  0
   -4.4640   -6.5181  -18.3933 N   0  0  0  0  0
   -1.6115   -8.3285  -17.7338 N   0  0  0  0  0
   -2.4247  -11.7402  -18.8044 N   0  0  0  0  0
   -5.9606   -1.2386  -15.9778 N   0  0  0  0  0
   -8.2883   -0.4753  -14.0930 N   0  0  0  0  0
  -10.9407    0.6860  -16.3786 N   0  0  0  0  0
   -5.8914   -5.6522  -20.5233 O   0  0  0  0  0
   -4.5723   -8.7913  -18.9352 O   0  0  0  0  0
   -2.6704  -12.5194  -20.9957 O   0  0  0  0  0
   -2.6504   -9.7963  -21.7651 O   0  0  0  0  0
   -5.6108   -4.1721  -17.3021 O   0  0  0  0  0
   -7.4630   -3.0354  -18.0859 O   0  0  0  0  0
   -1.9599    3.5053  -18.2296 O   0  0  0  0  0
   -6.6667    0.8647  -16.7174 O   0  0  0  0  0
  -10.4805   -1.2095  -14.3661 O   0  0  0  0  0
   -9.3272   -0.2956  -17.7587 O   0  0  0  0  0
  -11.6025   -2.3267  -18.4773 O   0  0  0  0  0
  -11.1998   -2.3153  -21.4413 O   0  0  0  0  0
  -11.4962   -4.3950  -20.4583 O   0  0  0  0  0
   -7.6020   -4.6950  -22.4708 O   0  0  0  0  0
  1  2  1  0  0  0
  3  2  1  0  0  0
  3  4  1  0  0  0
  3  5  1  0  0  0
  5 58  1  0  0  0
  7  6  1  0  0  0
  7 59  1  0  0  0
  7 23  1  0  0  0
  9  8  1  0  0  0
  9 10  1  0  0  0
  9 60  1  0  0  0
 10 11  1  0  0  0
 11 12  1  0  0  0
 11 13  1  0  0  0
 14 60  1  0  0  0
 15 60  1  0  0  0
 16 15  1  0  0  0
 16 17  1  0  0  0
 16 61  1  0  0  0
 17 18  1  0  0  0
 18 19  1  0  0  0
 19 61  1  0  0  0
 21 20  1  0  0  0
 21 22  1  0  0  0
 21 68  1  0  0  0
 23 24  1  0  0  0
 23 69  1  0  0  0
 25 69  1  0  0  0
 26 25  1  0  0  0
 26 27  1  0  0  0
 26 62  1  0  0  0
 27 28  1  0  0  0
 29 30  1  0  0  0
 31 71  1  0  0  0
 31 33  1  0  0  0
 32 71  1  0  0  0
 34 28  1  0  0  0
 35 62  1  0  0  0
 37 36  1  0  0  0
 37 38  1  0  0  0
 37 63  1  0  0  0
 38 39  1  0  0  0
 39 40  1  0  0  0
 40 63  1  0  0  0
 42 41  1  0  0  0
 42 43  1  0  0  0
 42 64  1  0  0  0
 43 44  1  0  0  0
 44 45  1  0  0  0
 44 46  1  0  0  0
 48 47  1  0  0  0
 48 49  1  0  0  0
 48 50  1  0  0  0
 51 50  1  0  0  0
 51 52  1  0  0  0
 51 76  1  0  0  0
 52 53  1  0  0  0
 52 54  1  0  0  0
 55 76  1  0  0  0
 56 55  1  0  0  0
 56 57  1  0  0  0
 57 78  1  0  0  0
 57  5  1  0  0  0
 58  6  1  0  0  0
 59  8  1  0  0  0
 61 20  1  0  0  0
 62 36  1  0  0  0
 63 41  1  0  0  0
 64 47  1  0  0  0
  6 65  2  0  0  0
  8 66  2  0  0  0
 20 67  2  0  0  0
 25 70  2  0  0  0
 28 29  2  0  0  0
 30 31  2  0  0  0
 33 34  2  0  0  0
 36 72  2  0  0  0
 41 73  2  0  0  0
 47 74  2  0  0  0
 50 75  2  0  0  0
 55 77  2  0  0  0
M  END
> <rmsd>
0.809645116

$$$$
CHEMBL1092368 PubChem-46883757


 52 56  0  0  0  0  0  0  0  0999 V2000
   -7.8241   -9.9391  -21.5087 N   0  0  0  0  0
   -3.9480    0.2977  -18.8575 N   0  0  0  0  0
   -2.0849    1.7437  -18.7128 N   0  0  0  0  0
   -1.1164    2.3492  -16.5947 N   0  0  0  0  0
   -2.0405   -8.7108  -20.6559 N   0  0  0  0  0
    2.4047  -11.5567  -26.1949 N   0  0  0  0  0
   -9.1142  -11.6059  -22.3303 N   0  0  0  0  0
  -10.0311  -11.9375  -18.8050 N   0  0  0  0  0
   -8.4491  -10.2019  -19.1851 N   0  0  0  0  0
  -10.8986  -13.2957  -20.6144 N   0  0  0  0  0
   -6.8491   -8.8578  -21.4585 C   0  0  0  0  0
   -5.5422   -9.3520  -20.8965 C   0  0  0  0  0
   -5.0161   -8.1464  -20.1917 C   0  0  0  0  0
   -6.2656   -7.3725  -19.8440 C   0  0  0  0  0
   -6.0212   -5.8900  -20.0412 C   0  0  0  0  0
   -6.2717   -2.3477  -19.6676 C   0  0  0  0  0
   -4.8522   -1.8884  -19.5175 C   0  0  0  0  0
   -4.9629   -0.3882  -19.6568 C   0  0  0  0  0
   -3.0073    1.0845  -19.4628 C   0  0  0  0  0
   -2.0810    1.6439  -17.3601 C   0  0  0  0  0
   -3.0346    0.8569  -16.7161 C   0  0  0  0  0
   -3.9709    0.1838  -17.4970 C   0  0  0  0  0
   -7.0957   -1.0885  -19.4724 C   0  0  0  0  0
   -8.0039   -1.2682  -18.2703 C   0  0  0  0  0
   -2.1211  -10.1567  -20.5125 C   0  0  0  0  0
   -0.8263  -10.8016  -20.9689 C   0  0  0  0  0
   -0.6837  -10.7032  -22.4754 C   0  0  0  0  0
    0.6386  -11.3192  -22.8916 C   0  0  0  0  0
    0.8413  -11.1501  -24.3815 C   0  0  0  0  0
    2.1559  -11.7921  -24.7812 C   0  0  0  0  0
   -8.4978  -10.5128  -20.5021 C   0  0  0  0  0
   -9.2705  -11.5037  -20.9933 C   0  0  0  0  0
   -8.2089  -10.6281  -22.6131 C   0  0  0  0  0
  -10.0685  -12.2444  -20.1377 C   0  0  0  0  0
   -9.2308  -10.9276  -18.3313 C   0  0  0  0  0
   -7.3311   -7.7959  -20.6639 O   0  0  0  0  0
   -7.1106   -5.1642  -19.5524 O   0  0  0  0  0
   -7.6375   -4.8769  -22.1272 O   0  0  0  0  0
   -6.4646   -2.8432  -20.9633 O   0  0  0  0  0
   -2.9787    1.2019  -20.7162 O   0  0  0  0  0
   -6.2479    0.0122  -19.2655 O   0  0  0  0  0
   -8.8796   -0.1860  -18.1641 O   0  0  0  0  0
   -9.5788    1.5845  -16.3675 O   0  0  0  0  0
   -9.1802   -0.8440  -15.4854 O   0  0  0  0  0
   -7.0939    0.7873  -16.2702 O   0  0  0  0  0
   -9.1126   -3.4946  -20.4823 O   0  0  0  0  0
   -4.3480   -8.5257  -19.0236 O   0  0  0  0  0
   -2.7020   -6.4938  -19.3268 O   0  0  0  0  0
   -1.8433   -8.4769  -17.8631 O   0  0  0  0  0
   -7.5747   -4.1230  -20.8149 P   0  0  0  0  0
   -8.7077    0.3671  -16.5688 P   0  0  0  0  0
   -2.7436   -8.0020  -19.2142 P   0  0  0  0  0
  1 31  1  0  0  0
  2 19  1  0  0  0
 11  1  1  0  0  0
 11 12  1  0  0  0
 11 36  1  0  0  0
 12 13  1  0  0  0
 13 14  1  0  0  0
 13 47  1  0  0  0
 14 36  1  0  0  0
 14 15  1  0  0  0
 15 37  1  0  0  0
 16 39  1  0  0  0
 16 17  1  0  0  0
 17 18  1  0  0  0
 18  2  1  0  0  0
 18 41  1  0  0  0
 19  3  1  0  0  0
 20 21  1  0  0  0
 20  4  1  0  0  0
 22  2  1  0  0  0
 23 41  1  0  0  0
 23 24  1  0  0  0
 23 16  1  0  0  0
 24 42  1  0  0  0
 25  5  1  0  0  0
 25 26  1  0  0  0
 26 27  1  0  0  0
 27 28  1  0  0  0
 28 29  1  0  0  0
 29 30  1  0  0  0
 30  6  1  0  0  0
 31  9  1  0  0  0
 32  7  1  0  0  0
 32 34  1  0  0  0
 33  1  1  0  0  0
 34 10  1  0  0  0
 35  8  1  0  0  0
 50 37  1  0  0  0
 50 39  1  0  0  0
 50 46  1  0  0  0
 51 42  1  0  0  0
 51 44  1  0  0  0
 51 45  1  0  0  0
 52 47  1  0  0  0
 52 49  1  0  0  0
 52  5  1  0  0  0
 19 40  2  0  0  0
 20  3  2  0  0  0
 21 22  2  0  0  0
 31 32  2  0  0  0
 33  7  2  0  0  0
 34  8  2  0  0  0
 35  9  2  0  0  0
 50 38  2  0  0  0
 51 43  2  0  0  0
 52 48  2  0  0  0
M  END
> <rmsd>
0.587983549

$$$$
CHEMBL166856 PubChem-44380545


 60 67  0  0  0  0  0  0  0  0999 V2000
   -6.3436   -4.2076  -20.8192 C   0  0  0  0  0
   -7.4144   -3.4776  -20.0344 C   0  0  0  0  0
   -6.9678   -3.0931  -18.6169 C   0  0  0  0  0
   -6.4690   -4.2950  -17.8089 C   0  0  0  0  0
   -5.5828   -5.2494  -18.6368 C   0  0  0  0  0
   -5.1288   -4.6470  -19.9794 C   0  0  0  0  0
   -3.2345   -3.7192  -20.6785 C   0  0  0  0  0
   -3.3721   -2.7167  -21.7700 C   0  0  0  0  0
   -3.2780   -1.3463  -21.4940 C   0  0  0  0  0
   -3.4231   -0.4149  -22.5276 C   0  0  0  0  0
   -3.6638   -0.8508  -23.8376 C   0  0  0  0  0
   -3.7571   -2.2181  -24.1120 C   0  0  0  0  0
   -3.6099   -3.1505  -23.0788 C   0  0  0  0  0
   -2.5884   -7.3820  -16.3511 C   0  0  0  0  0
   -1.4207   -8.0698  -15.7351 C   0  0  0  0  0
   -1.4349   -9.4535  -15.5476 C   0  0  0  0  0
   -0.3419  -10.0931  -14.9540 C   0  0  0  0  0
    0.7661   -9.3498  -14.5461 C   0  0  0  0  0
    0.7810   -7.9664  -14.7319 C   0  0  0  0  0
   -0.3123   -7.3263  -15.3248 C   0  0  0  0  0
   -6.6706   -8.0144  -17.6921 C   0  0  0  0  0
   -7.2683   -9.3416  -18.0081 C   0  0  0  0  0
   -7.5177   -9.6887  -19.3383 C   0  0  0  0  0
   -8.0963  -10.9247  -19.6425 C   0  0  0  0  0
   -8.4267  -11.8137  -18.6137 C   0  0  0  0  0
   -8.1759  -11.4684  -17.2816 C   0  0  0  0  0
   -7.5973  -10.2324  -16.9784 C   0  0  0  0  0
   -8.0607   -1.1106  -15.3865 C   0  0  0  0  0
   -9.1292   -0.1402  -14.9909 C   0  0  0  0  0
  -10.4369   -0.3239  -15.4497 C   0  0  0  0  0
  -11.4317    0.6056  -15.1152 C   0  0  0  0  0
  -11.1190    1.7189  -14.3194 C   0  0  0  0  0
   -9.8152    1.9002  -13.8556 C   0  0  0  0  0
   -8.8202    0.9715  -14.1910 C   0  0  0  0  0
   -5.7534    0.8079  -18.4964 C   0  0  0  0  0
   -4.2655    0.8708  -18.5147 C   0  0  0  0  0
   -3.5187    0.1827  -17.5513 C   0  0  0  0  0
   -2.1228    0.2284  -17.5861 C   0  0  0  0  0
   -1.4719    0.9622  -18.5833 C   0  0  0  0  0
   -2.2172    1.6537  -19.5436 C   0  0  0  0  0
   -3.6132    1.6098  -19.5077 C   0  0  0  0  0
   -8.2950   -5.3176  -20.9531 C   0  0  0  0  0
   -8.5898   -6.6808  -20.3015 C   0  0  0  0  0
  -10.0726   -7.0427  -20.4027 C   0  0  0  0  0
  -10.5198   -7.1727  -21.8700 C   0  0  0  0  0
   -9.6792   -6.3346  -22.8423 C   0  0  0  0  0
   -9.2052   -5.0422  -22.1736 C   0  0  0  0  0
   -4.2698   -3.5634  -19.7627 O   0  0  0  0  0
   -4.4771   -5.6594  -17.8803 O   0  0  0  0  0
   -4.5252   -7.7099  -19.5602 O   0  0  0  0  0
   -2.7429   -7.7977  -17.6758 O   0  0  0  0  0
   -5.4123   -8.1852  -17.1179 O   0  0  0  0  0
   -7.9938   -2.4310  -17.9366 O   0  0  0  0  0
   -8.6495    0.0897  -18.2075 O   0  0  0  0  0
   -7.0869   -0.4767  -16.1737 O   0  0  0  0  0
   -6.1645   -0.4893  -18.8010 O   0  0  0  0  0
   -8.5245   -4.3128  -19.9872 O   0  0  0  0  0
   -6.9511   -5.3280  -21.3836 O   0  0  0  0  0
   -4.3160   -7.3412  -18.1062 P   0  0  0  0  0
   -7.4997   -0.8069  -17.7933 P   0  0  0  0  0
  1  2  1  0  0  0
  1 58  1  0  0  0
  2  3  1  0  0  0
  2 57  1  0  0  0
  3  4  1  0  0  0
  3 53  1  0  0  0
  4  5  1  0  0  0
  5  6  1  0  0  0
  5 49  1  0  0  0
  6 48  1  0  0  0
  6  1  1  0  0  0
  7 48  1  0  0  0
  7  8  1  0  0  0
  9 10  1  0  0  0
 11 12  1  0  0  0
 13  8  1  0  0  0
 14 51  1  0  0  0
 14 15  1  0  0  0
 16 17  1  0  0  0
 18 19  1  0  0  0
 20 15  1  0  0  0
 21 52  1  0  0  0
 21 22  1  0  0  0
 23 24  1  0  0  0
 25 26  1  0  0  0
 27 22  1  0  0  0
 28 55  1  0  0  0
 28 29  1  0  0  0
 30 31  1  0  0  0
 32 33  1  0  0  0
 34 29  1  0  0  0
 35 56  1  0  0  0
 35 36  1  0  0  0
 37 38  1  0  0  0
 39 40  1  0  0  0
 41 36  1  0  0  0
 42 57  1  0  0  0
 42 58  1  0  0  0
 42 43  1  0  0  0
 43 44  1  0  0  0
 44 45  1  0  0  0
 45 46  1  0  0  0
 46 47  1  0  0  0
 47 42  1  0  0  0
 59 49  1  0  0  0
 59 51  1  0  0  0
 59 52  1  0  0  0
 60 53  1  0  0  0
 60 55  1  0  0  0
 60 56  1  0  0  0
  8  9  2  0  0  0
 10 11  2  0  0  0
 12 13  2  0  0  0
 15 16  2  0  0  0
 17 18  2  0  0  0
 19 20  2  0  0  0
 22 23  2  0  0  0
 24 25  2  0  0  0
 26 27  2  0  0  0
 29 30  2  0  0  0
 31 32  2  0  0  0
 33 34  2  0  0  0
 36 37  2  0  0  0
 38 39  2  0  0  0
 40 41  2  0  0  0
 59 50  2  0  0  0
 60 54  2  0  0  0
M  END
> <rmsd>
0.706997693

$$$$
CHEMBL2058991 PubChem-11607842


 91102  0  0  0  0  0  0  0  0999 V2000
  -10.9848   12.4904  -16.8147 C   0  0  0  0  0
  -11.3417   13.3768  -15.6363 C   0  0  0  0  0
  -12.6705   14.0529  -15.8614 C   0  0  0  0  0
  -12.5119   15.3731  -15.1493 C   0  0  0  0  0
  -11.0261   15.4542  -14.8657 C   0  0  0  0  0
   -9.5869   16.9350  -16.3329 C   0  0  0  0  0
  -10.0235   18.8600  -15.5486 C   0  0  0  0  0
  -10.1199   20.2072  -15.2277 C   0  0  0  0  0
  -11.6709   19.6149  -13.5130 C   0  0  0  0  0
  -10.7436   17.9495  -14.8599 C   0  0  0  0  0
  -10.8042    8.8507  -17.7445 C   0  0  0  0  0
   -9.6019    8.8449  -15.8606 C   0  0  0  0  0
   -9.4024    7.4090  -15.4659 C   0  0  0  0  0
   -7.9525    7.3346  -15.0200 C   0  0  0  0  0
   -7.2108    6.3302  -15.8797 C   0  0  0  0  0
   -6.8430    2.6592  -16.7305 C   0  0  0  0  0
   -8.2919    2.2659  -16.8550 C   0  0  0  0  0
   -8.3020    0.8223  -16.4221 C   0  0  0  0  0
   -9.3675    0.0218  -17.1629 C   0  0  0  0  0
   -6.8850   -1.8077  -18.8411 C   0  0  0  0  0
   -5.5285   -3.3208  -19.7351 C   0  0  0  0  0
   -4.2570   -3.7047  -19.0536 C   0  0  0  0  0
   -3.6296   -4.6959  -20.0017 C   0  0  0  0  0
   -2.9310   -5.7773  -19.1996 C   0  0  0  0  0
   -5.7914   -4.4819  -20.6892 C   0  0  0  0  0
   -6.9694   -6.1587  -19.1949 C   0  0  0  0  0
   -8.8780   -6.2861  -20.1232 C   0  0  0  0  0
  -10.1841   -6.5447  -20.5174 C   0  0  0  0  0
   -9.8689   -5.0070  -22.3140 C   0  0  0  0  0
   -8.1184   -5.4225  -20.8289 C   0  0  0  0  0
   -6.1147    1.3357  -16.5999 C   0  0  0  0  0
   -5.3601    1.1946  -19.0141 C   0  0  0  0  0
   -3.2666    0.9441  -18.7830 C   0  0  0  0  0
   -1.8938    0.7893  -18.9112 C   0  0  0  0  0
   -1.7378    0.7976  -16.5279 C   0  0  0  0  0
   -3.8189    1.0299  -17.5525 C   0  0  0  0  0
   -8.4202    9.5111  -15.1731 C   0  0  0  0  0
   -7.5549   11.0007  -17.0397 C   0  0  0  0  0
   -7.3951   12.8631  -16.0336 C   0  0  0  0  0
   -7.1492   14.1624  -15.6094 C   0  0  0  0  0
   -7.9411   13.5335  -13.4489 C   0  0  0  0  0
   -7.9042   11.9594  -15.1698 C   0  0  0  0  0
  -13.7083   13.2804  -15.3293 O   0  0  0  0  0
  -13.2007   15.3947  -13.9345 O   0  0  0  0  0
  -10.3751   14.3793  -15.4995 O   0  0  0  0  0
  -11.8060   11.3609  -16.8296 O   0  0  0  0  0
  -12.6516   10.3282  -19.0738 O   0  0  0  0  0
  -10.2111   11.2631  -19.1615 O   0  0  0  0  0
   -9.4968    8.9507  -17.2536 O   0  0  0  0  0
   -5.9388    6.0973  -15.3554 O   0  0  0  0  0
   -4.1289    4.2219  -15.4278 O   0  0  0  0  0
   -5.3154    4.7559  -17.6896 O   0  0  0  0  0
   -6.6125    3.4197  -15.5789 O   0  0  0  0  0
   -9.1031   -0.0182  -18.5341 O   0  0  0  0  0
   -9.1719   -1.9629  -20.2855 O   0  0  0  0  0
   -9.3995   -2.7048  -17.7966 O   0  0  0  0  0
   -6.5533   -3.1613  -18.7962 O   0  0  0  0  0
   -2.3378   -6.7059  -20.0573 O   0  0  0  0  0
   -3.9291   -8.5408  -19.0413 O   0  0  0  0  0
   -1.7550   -9.3961  -20.2156 O   0  0  0  0  0
   -1.6816   -8.1299  -17.7613 O   0  0  0  0  0
   -4.6275   -5.2686  -20.8168 O   0  0  0  0  0
   -3.4336   -2.5873  -18.9176 O   0  0  0  0  0
   -7.0301    0.2688  -16.6376 O   0  0  0  0  0
   -9.1196    3.0240  -16.0217 O   0  0  0  0  0
   -7.3539    8.6027  -15.1520 O   0  0  0  0  0
  -10.2334    7.1071  -14.3865 O   0  0  0  0  0
  -10.4900   16.7267  -15.3386 N   0  0  0  0  0
   -9.2792   18.2538  -16.4919 N   0  0  0  0  0
   -9.3827   21.1952  -15.9382 N   0  0  0  0  0
  -10.9556   20.5611  -14.2047 N   0  0  0  0  0
  -11.5679   18.2892  -13.8380 N   0  0  0  0  0
   -6.9105   -5.3230  -20.2624 N   0  0  0  0  0
   -8.1829   -6.7728  -19.0792 N   0  0  0  0  0
  -11.0153   -7.4459  -19.7946 N   0  0  0  0  0
  -10.6548   -5.8959  -21.6225 N   0  0  0  0  0
   -8.5849   -4.7585  -21.9121 N   0  0  0  0  0
   -5.1376    1.1876  -17.6726 N   0  0  0  0  0
   -4.2128    1.0454  -19.7361 N   0  0  0  0  0
   -1.2705    0.7101  -20.1880 N   0  0  0  0  0
   -1.1503    0.7161  -17.7658 N   0  0  0  0  0
   -3.0911    0.9598  -16.4104 N   0  0  0  0  0
   -8.0140   10.7768  -15.7826 N   0  0  0  0  0
   -7.1686   12.2930  -17.2312 N   0  0  0  0  0
   -6.6409   15.1477  -16.4986 N   0  0  0  0  0
   -7.4361   14.4742  -14.3106 N   0  0  0  0  0
   -8.1765   12.2544  -13.8755 N   0  0  0  0  0
  -11.4077   10.4929  -18.2360 P   0  0  0  0  0
   -5.4700    4.6057  -16.0062 P   0  0  0  0  0
   -8.6900   -1.6283  -18.8927 P   0  0  0  0  0
   -2.4701   -8.1961  -19.2599 P   0  0  0  0  0
  1 46  1  0  0  0
  2  1  1  0  0  0
  2  3  1  0  0  0
  2 45  1  0  0  0
  3 43  1  0  0  0
  3  4  1  0  0  0
  4 44  1  0  0  0
  4  5  1  0  0  0
  5 45  1  0  0  0
  5 68  1  0  0  0
  7 69  1  0  0  0
  8 70  1  0  0  0
  8 71  1  0  0  0
  9 72  1  0  0  0
 10 68  1  0  0  0
 10  7  1  0  0  0
 11 49  1  0  0  0
 12 49  1  0  0  0
 12 13  1  0  0  0
 13 14  1  0  0  0
 13 67  1  0  0  0
 14 15  1  0  0  0
 14 66  1  0  0  0
 15 50  1  0  0  0
 16 53  1  0  0  0
 16 17  1  0  0  0
 17 18  1  0  0  0
 17 65  1  0  0  0
 18 19  1  0  0  0
 18 64  1  0  0  0
 19 54  1  0  0  0
 20 57  1  0  0  0
 21 57  1  0  0  0
 21 22  1  0  0  0
 22 23  1  0  0  0
 22 63  1  0  0  0
 23 24  1  0  0  0
 23 62  1  0  0  0
 24 58  1  0  0  0
 25 62  1  0  0  0
 25 73  1  0  0  0
 25 21  1  0  0  0
 27 74  1  0  0  0
 28 75  1  0  0  0
 28 76  1  0  0  0
 29 77  1  0  0  0
 30 73  1  0  0  0
 30 27  1  0  0  0
 31 64  1  0  0  0
 31 78  1  0  0  0
 31 16  1  0  0  0
 33 79  1  0  0  0
 34 80  1  0  0  0
 34 81  1  0  0  0
 35 82  1  0  0  0
 36 78  1  0  0  0
 36 33  1  0  0  0
 37 66  1  0  0  0
 37 83  1  0  0  0
 37 12  1  0  0  0
 39 84  1  0  0  0
 40 85  1  0  0  0
 40 86  1  0  0  0
 41 87  1  0  0  0
 42 83  1  0  0  0
 42 39  1  0  0  0
 68  6  1  0  0  0
 73 26  1  0  0  0
 78 32  1  0  0  0
 83 38  1  0  0  0
 88 46  1  0  0  0
 88 48  1  0  0  0
 88 11  1  0  0  0
 89 50  1  0  0  0
 89 52  1  0  0  0
 89 53  1  0  0  0
 90 54  1  0  0  0
 90 56  1  0  0  0
 90 20  1  0  0  0
 91 58  1  0  0  0
 91 60  1  0  0  0
 91 61  1  0  0  0
  6 69  2  0  0  0
  7  8  2  0  0  0
  9 71  2  0  0  0
 10 72  2  0  0  0
 26 74  2  0  0  0
 27 28  2  0  0  0
 29 76  2  0  0  0
 30 77  2  0  0  0
 32 79  2  0  0  0
 33 34  2  0  0  0
 35 81  2  0  0  0
 36 82  2  0  0  0
 38 84  2  0  0  0
 39 40  2  0  0  0
 41 86  2  0  0  0
 42 87  2  0  0  0
 88 47  2  0  0  0
 89 51  2  0  0  0
 90 55  2  0  0  0
 91 59  2  0  0  0
M  END
> <rmsd>
0.700160563

$$$$
CHEMBL385301 PubChem-12573612


 64 68  0  0  0  0  0  0  0  0999 V2000
   -1.6742   -1.1543  -20.8805 S   0  0  0  0  0
   -0.0134    1.2181  -16.2827 S   0  0  0  0  0
   -0.2763   -3.8835  -11.8080 S   0  0  0  0  0
   -4.2903   -0.4168  -13.1451 S   0  0  0  0  0
   -7.7420    0.7757  -17.6823 S   0  0  0  0  0
   -5.8825    3.9175  -13.4488 S   0  0  0  0  0
   -8.1409    7.5235  -16.8614 S   0  0  0  0  0
   -2.9792   -7.6833  -19.4795 S   0  0  0  0  0
   -6.6135   -3.7617  -20.6083 S   0  0  0  0  0
   -2.6993   -0.9352  -21.9590 O   0  0  0  0  0
   -0.3622   -0.6128  -21.3776 O   0  0  0  0  0
    1.1662    1.6371  -17.1165 O   0  0  0  0  0
   -0.4223    2.3765  -15.4154 O   0  0  0  0  0
   -1.3683   -4.4011  -10.9148 O   0  0  0  0  0
    0.1378   -4.9718  -12.7586 O   0  0  0  0  0
    1.0385   -3.4282  -10.8613 O   0  0  0  0  0
   -4.5736    0.6630  -14.1522 O   0  0  0  0  0
   -5.2269   -1.5667  -13.3864 O   0  0  0  0  0
   -4.5269    0.1949  -11.5983 O   0  0  0  0  0
   -7.9058    0.3917  -16.2385 O   0  0  0  0  0
   -8.6814   -0.0618  -18.5041 O   0  0  0  0  0
   -6.0889    5.0580  -12.4833 O   0  0  0  0  0
   -6.4452    2.6546  -12.8403 O   0  0  0  0  0
   -4.2323    3.7236  -13.7480 O   0  0  0  0  0
   -8.8378    7.5781  -18.1949 O   0  0  0  0  0
   -9.0482    8.0901  -15.8067 O   0  0  0  0  0
   -6.7287    8.4326  -16.9406 O   0  0  0  0  0
   -4.2574   -8.4313  -19.2225 O   0  0  0  0  0
   -2.1455   -7.6885  -18.2257 O   0  0  0  0  0
   -2.1389   -8.4426  -20.7235 O   0  0  0  0  0
   -6.6846   -2.5799  -21.5364 O   0  0  0  0  0
   -7.4407   -4.8798  -21.1790 O   0  0  0  0  0
   -7.2149   -3.3318  -19.0999 O   0  0  0  0  0
   -2.1123   -0.3051  -19.3902 C   0  0  0  0  0
   -1.0722    0.0908  -18.5403 C   0  0  0  0  0
   -1.3360    0.7589  -17.3420 C   0  0  0  0  0
   -0.4514   -0.7622  -14.3629 C   0  0  0  0  0
   -0.0002   -1.8552  -13.6182 C   0  0  0  0  0
   -0.8576   -2.5004  -12.7200 C   0  0  0  0  0
   -2.1741   -2.0538  -12.5684 C   0  0  0  0  0
   -2.6341   -0.9643  -13.3137 C   0  0  0  0  0
   -1.7711   -0.3202  -14.2035 C   0  0  0  0  0
   -2.6557    1.0280  -16.9718 C   0  0  0  0  0
   -3.7111    0.6323  -17.7927 C   0  0  0  0  0
   -3.4501   -0.0336  -19.0166 C   0  0  0  0  0
   -4.5341   -0.4114  -19.8211 C   0  0  0  0  0
   -5.8450   -0.1581  -19.4155 C   0  0  0  0  0
   -6.0940    0.4800  -18.1981 C   0  0  0  0  0
   -7.7549    3.4961  -17.0123 C   0  0  0  0  0
   -7.0649    3.2251  -15.8204 C   0  0  0  0  0
   -6.7246    4.2643  -14.9475 C   0  0  0  0  0
   -7.0621    5.5826  -15.2719 C   0  0  0  0  0
   -7.7434    5.8623  -16.4605 C   0  0  0  0  0
   -8.0917    4.8167  -17.3259 C   0  0  0  0  0
   -5.0263    0.8825  -17.3929 C   0  0  0  0  0
   -2.5710   -3.7767  -20.4275 C   0  0  0  0  0
   -2.2943   -5.1064  -20.0958 C   0  0  0  0  0
   -3.3377   -6.0258  -19.9334 C   0  0  0  0  0
   -4.6644   -5.6133  -20.1032 C   0  0  0  0  0
   -4.9487   -4.2878  -20.4413 C   0  0  0  0  0
   -3.9020   -3.3738  -20.5981 C   0  0  0  0  0
    0.4400   -0.1259  -15.2841 N   0  0  0  0  0
   -8.1317    2.4498  -17.9134 N   0  0  0  0  0
   -1.4878   -2.8526  -20.5680 N   0  0  0  0  0
  1 34  1  0  0  0
  1 64  1  0  0  0
  2 36  1  0  0  0
  2 62  1  0  0  0
  3 39  1  0  0  0
  3 16  1  0  0  0
  4 41  1  0  0  0
  4 19  1  0  0  0
  5 48  1  0  0  0
  5 63  1  0  0  0
  6 51  1  0  0  0
  6 24  1  0  0  0
  7 53  1  0  0  0
  7 27  1  0  0  0
  8 58  1  0  0  0
  8 30  1  0  0  0
  9 60  1  0  0  0
  9 33  1  0  0  0
 35 36  1  0  0  0
 38 39  1  0  0  0
 40 41  1  0  0  0
 42 37  1  0  0  0
 43 44  1  0  0  0
 45 46  1  0  0  0
 45 34  1  0  0  0
 47 48  1  0  0  0
 50 51  1  0  0  0
 52 53  1  0  0  0
 54 49  1  0  0  0
 55 44  1  0  0  0
 57 58  1  0  0  0
 59 60  1  0  0  0
 61 56  1  0  0  0
 62 37  1  0  0  0
 63 49  1  0  0  0
 64 56  1  0  0  0
  1 10  2  0  0  0
  1 11  2  0  0  0
  2 12  2  0  0  0
  2 13  2  0  0  0
  3 14  2  0  0  0
  3 15  2  0  0  0
  4 17  2  0  0  0
  4 18  2  0  0  0
  5 20  2  0  0  0
  5 21  2  0  0  0
  6 22  2  0  0  0
  6 23  2  0  0  0
  7 25  2  0  0  0
  7 26  2  0  0  0
  8 28  2  0  0  0
  8 29  2  0  0  0
  9 31  2  0  0  0
  9 32  2  0  0  0
 34 35  2  0  0  0
 36 43  2  0  0  0
 37 38  2  0  0  0
 39 40  2  0  0  0
 41 42  2  0  0  0
 44 45  2  0  0  0
 46 47  2  0  0  0
 48 55  2  0  0  0
 49 50  2  0  0  0
 51 52  2  0  0  0
 53 54  2  0  0  0
 56 57  2  0  0  0
 58 59  2  0  0  0
 60 61  2  0  0  0
M  CHG  6  16  -1  19  -1  24  -1  27  -1  30  -1  33  -1
M  END
> <rmsd>
0.721311688

$$$$
CHEMBL3747873


 56 61  0  0  0  0  0  0  0  0999 V2000
   -7.3182  -14.2422  -20.1051 C   0  0  0  0  0
   -7.5814  -12.4749  -18.6890 C   0  0  0  0  0
   -7.9646  -13.7106  -17.9120 C   0  0  0  0  0
   -8.1906  -14.7445  -18.9767 C   0  0  0  0  0
   -6.4730  -11.7369  -17.9582 C   0  0  0  0  0
   -4.6203   -6.2449  -18.3394 C   0  0  0  0  0
   -5.5531   -1.8583  -20.0286 C   0  0  0  0  0
   -5.9029   -1.4726  -18.5990 C   0  0  0  0  0
   -6.7797   -0.2455  -18.5719 C   0  0  0  0  0
   -6.3089    0.4891  -17.3500 C   0  0  0  0  0
   -4.8680    0.0353  -17.2418 C   0  0  0  0  0
   -2.5699    0.8117  -17.8820 C   0  0  0  0  0
   -2.9154    2.7183  -18.7445 C   0  0  0  0  0
   -2.8535    3.9694  -19.3409 C   0  0  0  0  0
   -5.2239    4.1120  -19.1238 C   0  0  0  0  0
   -4.1060    2.2069  -18.3634 C   0  0  0  0  0
   -5.7782  -16.2050  -20.3970 C   0  0  0  0  0
   -6.1854  -18.4122  -21.0414 C   0  0  0  0  0
   -3.9556  -17.7108  -20.5556 C   0  0  0  0  0
   -4.4544  -16.4458  -20.2868 C   0  0  0  0  0
   -4.8043  -14.4113  -19.7932 C   0  0  0  0  0
   -7.1407  -12.8476  -19.9759 O   0  0  0  0  0
   -9.5214  -14.7436  -19.4039 O   0  0  0  0  0
   -9.1167  -13.4779  -17.1563 O   0  0  0  0  0
   -6.2967  -10.4645  -18.5096 O   0  0  0  0  0
   -4.7050  -11.2189  -20.4429 O   0  0  0  0  0
   -4.3000   -8.8265  -19.5113 O   0  0  0  0  0
   -2.6798   -8.0042  -17.6210 O   0  0  0  0  0
   -5.0886   -8.6048  -16.7990 O   0  0  0  0  0
   -7.2133   -6.7243  -17.6676 O   0  0  0  0  0
   -6.6732   -7.0488  -20.1942 O   0  0  0  0  0
   -6.8078   -4.5073  -18.9796 O   0  0  0  0  0
   -7.6312   -4.6568  -21.4680 O   0  0  0  0  0
   -6.6736   -2.3629  -20.6963 O   0  0  0  0  0
   -8.1269   -0.6046  -18.4798 O   0  0  0  0  0
   -4.7211   -1.2165  -17.8781 O   0  0  0  0  0
   -7.0004    0.0650  -16.2130 O   0  0  0  0  0
   -4.7211  -10.4352  -19.1499 P   0  0  0  0  0
   -4.1307   -7.9719  -18.0461 P   0  0  0  0  0
   -6.3825   -6.1459  -18.7905 P   0  0  0  0  0
   -6.5485   -4.0540  -20.6019 P   0  0  0  0  0
   -4.6541   -4.6627  -21.3471 S   0  0  0  0  0
   -3.3085  -11.3164  -17.8292 S   0  0  0  0  0
   -3.9156    0.9951  -17.8139 N   0  0  0  0  0
   -1.9193    1.8615  -18.4572 N   0  0  0  0  0
   -1.6142    4.5361  -19.7542 N   0  0  0  0  0
   -4.0244    4.6480  -19.5196 N   0  0  0  0  0
   -5.2719    2.8775  -18.5386 N   0  0  0  0  0
   -6.0263  -14.9282  -20.0917 N   0  0  0  0  0
   -6.6666  -17.1596  -20.7712 N   0  0  0  0  0
   -4.8432  -18.6793  -20.9317 N   0  0  0  0  0
   -3.8042  -15.3323  -19.9004 N   0  0  0  0  0
   -2.5665  -18.0014  -20.4451 N   0  0  0  0  0
   -6.7033    5.0130  -19.3700 Cl  0  0  0  0  0
   -4.3139   -5.2677  -16.8819 Cl  0  0  0  0  0
   -7.2886  -19.6807  -21.5257 Cl  0  0  0  0  0
  1 22  1  0  0  0
  1 49  1  0  0  0
  2 22  1  0  0  0
  2  3  1  0  0  0
  2  5  1  0  0  0
  3  4  1  0  0  0
  3 24  1  0  0  0
  4 23  1  0  0  0
  4  1  1  0  0  0
  5 25  1  0  0  0
  6 40  1  0  0  0
  6 55  1  0  0  0
  7 34  1  0  0  0
  8  7  1  0  0  0
  8  9  1  0  0  0
  8 36  1  0  0  0
  9 35  1  0  0  0
  9 10  1  0  0  0
 10 11  1  0  0  0
 10 37  1  0  0  0
 11 36  1  0  0  0
 11 44  1  0  0  0
 13 45  1  0  0  0
 14 46  1  0  0  0
 14 47  1  0  0  0
 15 48  1  0  0  0
 15 54  1  0  0  0
 16 44  1  0  0  0
 16 13  1  0  0  0
 18 50  1  0  0  0
 18 56  1  0  0  0
 19 51  1  0  0  0
 19 53  1  0  0  0
 20 52  1  0  0  0
 20 17  1  0  0  0
 21 49  1  0  0  0
 38 25  1  0  0  0
 38 27  1  0  0  0
 38 43  1  0  0  0
 39 27  1  0  0  0
 39 29  1  0  0  0
 39  6  1  0  0  0
 40 31  1  0  0  0
 40 32  1  0  0  0
 41 32  1  0  0  0
 41 42  1  0  0  0
 41 34  1  0  0  0
 44 12  1  0  0  0
 49 17  1  0  0  0
 12 45  2  0  0  0
 13 14  2  0  0  0
 15 47  2  0  0  0
 16 48  2  0  0  0
 17 50  2  0  0  0
 18 51  2  0  0  0
 19 20  2  0  0  0
 21 52  2  0  0  0
 38 26  2  0  0  0
 39 28  2  0  0  0
 40 30  2  0  0  0
 41 33  2  0  0  0
M  END
> <rmsd>
0.731420577

$$$$
CHEMBL1161409 PubChem-461799


 41 43  0  0  0  0  0  0  0  0999 V2000
   -7.0196   -0.2723  -17.9297 S   0  0  0  0  0
   -8.8566   -6.1975  -21.4016 S   0  0  0  0  0
   -2.6010   -8.0448  -19.0158 S   0  0  0  0  0
   -1.0360    3.9284  -16.8314 S   0  0  0  0  0
   -2.4201    3.2671  -20.9573 S   0  0  0  0  0
   -7.2405   -0.2027  -16.4444 O   0  0  0  0  0
   -8.3482   -0.4063  -18.6210 O   0  0  0  0  0
   -6.0559   -1.6117  -18.2802 O   0  0  0  0  0
   -3.6866   -2.9006  -19.4421 O   0  0  0  0  0
   -7.8192   -4.8815  -21.0581 O   0  0  0  0  0
   -9.1458   -6.9568  -20.1366 O   0  0  0  0  0
   -8.2060   -7.1129  -22.4003 O   0  0  0  0  0
  -10.2967   -5.6146  -22.0401 O   0  0  0  0  0
   -4.1567   -7.7336  -19.6564 O   0  0  0  0  0
   -1.5556   -7.3964  -19.8793 O   0  0  0  0  0
   -2.5106   -7.4993  -17.6184 O   0  0  0  0  0
   -2.3407   -9.7036  -18.9804 O   0  0  0  0  0
   -1.4221    2.2884  -16.5186 O   0  0  0  0  0
   -0.0153    4.0220  -17.9320 O   0  0  0  0  0
   -2.2773    4.6847  -17.2164 O   0  0  0  0  0
   -0.3943    4.6085  -15.4358 O   0  0  0  0  0
   -2.0594    2.8693  -19.3326 O   0  0  0  0  0
   -1.9561    4.6675  -21.2392 O   0  0  0  0  0
   -1.7158    2.3144  -21.8814 O   0  0  0  0  0
   -4.0781    3.1712  -21.2095 O   0  0  0  0  0
   -6.2630    1.1439  -18.4307 O   0  0  0  0  0
   -5.6571   -1.4548  -19.6137 C   0  0  0  0  0
   -4.1331   -1.5764  -19.7451 C   0  0  0  0  0
   -4.4514   -4.0302  -19.7529 C   0  0  0  0  0
   -5.7643   -3.8904  -20.2438 C   0  0  0  0  0
   -6.5226   -5.0313  -20.5505 C   0  0  0  0  0
   -5.9651   -6.3026  -20.3438 C   0  0  0  0  0
   -4.6684   -6.4461  -19.8439 C   0  0  0  0  0
   -3.9150   -5.3024  -19.5479 C   0  0  0  0  0
   -6.3272   -2.5154  -20.4898 C   0  0  0  0  0
   -3.4106   -0.5595  -18.9170 C   0  0  0  0  0
   -3.0608    0.6655  -19.4851 C   0  0  0  0  0
   -2.3994    1.6525  -18.7350 C   0  0  0  0  0
   -2.0829    1.3919  -17.3763 C   0  0  0  0  0
   -2.4419    0.1571  -16.8215 C   0  0  0  0  0
   -3.1025   -0.8092  -17.5778 C   0  0  0  0  0
  1  8  1  0  0  0
  1 26  1  0  0  0
  2 10  1  0  0  0
  2 13  1  0  0  0
  3 14  1  0  0  0
  3 17  1  0  0  0
  4 18  1  0  0  0
  4 21  1  0  0  0
  5 22  1  0  0  0
  5 25  1  0  0  0
 27  8  1  0  0  0
 27 28  1  0  0  0
 28  9  1  0  0  0
 28 36  1  0  0  0
 29  9  1  0  0  0
 30 31  1  0  0  0
 31 10  1  0  0  0
 32 33  1  0  0  0
 33 14  1  0  0  0
 34 29  1  0  0  0
 35 30  1  0  0  0
 35 27  1  0  0  0
 37 38  1  0  0  0
 38 22  1  0  0  0
 39 18  1  0  0  0
 39 40  1  0  0  0
 41 36  1  0  0  0
  1  6  2  0  0  0
  1  7  2  0  0  0
  2 11  2  0  0  0
  2 12  2  0  0  0
  3 15  2  0  0  0
  3 16  2  0  0  0
  4 19  2  0  0  0
  4 20  2  0  0  0
  5 23  2  0  0  0
  5 24  2  0  0  0
 29 30  2  0  0  0
 31 32  2  0  0  0
 33 34  2  0  0  0
 36 37  2  0  0  0
 38 39  2  0  0  0
 40 41  2  0  0  0
M  END
> <rmsd>
0.721174777

$$$$
CHEMBL4094217 PubChem-137654022


 60 63  0  0  0  0  0  0  0  0999 V2000
   -9.3136   -2.8079  -16.5150 O   0  0  0  0  0
   -7.8252   -5.1971  -22.0125 O   0  0  0  0  0
   -6.2367   -5.9194  -20.5445 O   0  0  0  0  0
   -3.9850   -8.3578  -17.0487 O   0  0  0  0  0
   -1.7264   -8.4626  -17.5143 O   0  0  0  0  0
   -5.0233   -8.1453  -19.4737 O   0  0  0  0  0
   -5.8302   -1.4279  -20.2281 O   0  0  0  0  0
   -4.0562   -1.8130  -18.8113 O   0  0  0  0  0
   -8.4561   -0.8217  -18.0129 O   0  0  0  0  0
   -7.3418    0.6075  -16.6126 O   0  0  0  0  0
   -8.1914    1.0557  -20.1089 O   0  0  0  0  0
   -7.9860   -2.9480  -16.9112 C   0  0  0  0  0
   -7.7045   -2.0057  -18.1010 C   0  0  0  0  0
   -7.7703   -2.6700  -19.4917 C   0  0  0  0  0
   -6.3570   -2.7432  -20.0778 C   0  0  0  0  0
   -6.3110   -3.4958  -21.4063 C   0  0  0  0  0
   -6.8126   -4.9076  -21.3273 C   0  0  0  0  0
   -5.2672   -5.7625  -19.5040 C   0  0  0  0  0
   -5.2487   -7.0455  -18.6379 C   0  0  0  0  0
   -4.1488   -7.0321  -17.5453 C   0  0  0  0  0
   -4.4122   -6.0885  -16.3507 C   0  0  0  0  0
   -4.9848   -3.9116  -15.6185 C   0  0  0  0  0
   -5.5950   -2.5998  -16.0764 C   0  0  0  0  0
   -7.0871   -2.5567  -15.7374 C   0  0  0  0  0
   -4.8865   -1.4673  -15.3698 C   0  0  0  0  0
   -3.1317   -4.1787  -17.0568 C   0  0  0  0  0
   -3.4376   -6.3457  -15.1943 C   0  0  0  0  0
   -2.7735   -9.0435  -17.1217 C   0  0  0  0  0
   -1.5033  -11.1961  -16.6706 C   0  0  0  0  0
   -0.6653  -10.7844  -15.4993 C   0  0  0  0  0
    0.6909  -10.5486  -15.6783 C   0  0  0  0  0
    1.4915  -10.2115  -14.5849 C   0  0  0  0  0
    0.9358  -10.1217  -13.3077 C   0  0  0  0  0
   -0.4214  -10.3750  -13.1231 C   0  0  0  0  0
   -1.2213  -10.7132  -14.2150 C   0  0  0  0  0
   -6.6169   -7.2455  -17.9958 C   0  0  0  0  0
   -3.8773   -5.4279  -20.0719 C   0  0  0  0  0
   -3.4383   -6.3939  -21.1672 C   0  0  0  0  0
   -4.9533   -3.4291  -22.0742 C   0  0  0  0  0
   -4.7279   -0.9907  -19.4940 C   0  0  0  0  0
   -3.4005    1.0463  -18.7102 C   0  0  0  0  0
   -2.5104    0.3150  -17.9000 C   0  0  0  0  0
   -1.5675    0.9770  -17.1154 C   0  0  0  0  0
   -1.5115    2.3745  -17.1311 C   0  0  0  0  0
   -2.3944    3.1096  -17.9378 C   0  0  0  0  0
   -3.3328    2.4457  -18.7260 C   0  0  0  0  0
   -8.7668   -2.0116  -20.4427 C   0  0  0  0  0
   -7.5251    0.2194  -17.9538 C   0  0  0  0  0
   -6.2001    1.4352  -16.5894 C   0  0  0  0  0
   -6.5375    2.7880  -17.2231 C   0  0  0  0  0
   -7.0348    2.5816  -18.6636 C   0  0  0  0  0
   -8.0353    1.4168  -18.7673 C   0  0  0  0  0
   -6.5312    4.7795  -19.4494 C   0  0  0  0  0
   -8.6128    4.4132  -18.3979 C   0  0  0  0  0
   -5.7661    1.6591  -15.1549 C   0  0  0  0  0
   -7.7538   -4.4138  -17.2432 C   0  0  0  0  0
   -4.4693   -4.6759  -16.7492 N   0  0  0  0  0
   -2.7350  -10.4172  -16.7301 N   0  0  0  0  0
   -4.3979    0.4036  -19.5072 N   0  0  0  0  0
   -7.5988    3.8062  -19.2657 N   0  0  0  0  0
 12  1  1  0  0  0
 12 13  1  0  0  0
 12 56  1  0  0  0
 13 14  1  0  0  0
 13  9  1  0  0  0
 14 15  1  0  0  0
 14 47  1  0  0  0
 15 16  1  0  0  0
 15  7  1  0  0  0
 16 17  1  0  0  0
 16 39  1  0  0  0
 17  3  1  0  0  0
 18  3  1  0  0  0
 18 19  1  0  0  0
 18 37  1  0  0  0
 19 20  1  0  0  0
 19  6  1  0  0  0
 19 36  1  0  0  0
 20 21  1  0  0  0
 20  4  1  0  0  0
 21 57  1  0  0  0
 21 27  1  0  0  0
 22 57  1  0  0  0
 22 23  1  0  0  0
 23 24  1  0  0  0
 23 25  1  0  0  0
 24 12  1  0  0  0
 26 57  1  0  0  0
 28  4  1  0  0  0
 28 58  1  0  0  0
 29 58  1  0  0  0
 29 30  1  0  0  0
 31 32  1  0  0  0
 33 34  1  0  0  0
 35 30  1  0  0  0
 37 38  1  0  0  0
 40  7  1  0  0  0
 40 59  1  0  0  0
 42 43  1  0  0  0
 44 45  1  0  0  0
 46 41  1  0  0  0
 48  9  1  0  0  0
 48 10  1  0  0  0
 49 10  1  0  0  0
 49 50  1  0  0  0
 49 55  1  0  0  0
 50 51  1  0  0  0
 51 52  1  0  0  0
 51 60  1  0  0  0
 52 11  1  0  0  0
 52 48  1  0  0  0
 53 60  1  0  0  0
 54 60  1  0  0  0
 59 41  1  0  0  0
 17  2  2  0  0  0
 28  5  2  0  0  0
 30 31  2  0  0  0
 32 33  2  0  0  0
 34 35  2  0  0  0
 40  8  2  0  0  0
 41 42  2  0  0  0
 43 44  2  0  0  0
 45 46  2  0  0  0
M  END
> <rmsd>
0.52419132

$$$$
CHEMBL2059741 PubChem-70684295


 91102  0  0  0  0  0  0  0  0999 V2000
   -3.3669   14.6744  -17.3566 P   0  0  0  0  0
   -3.7161    6.8146  -16.3289 P   0  0  0  0  0
   -6.8756   -0.2187  -17.5231 P   0  0  0  0  0
   -3.7731   -7.6834  -17.4042 P   0  0  0  0  0
   -2.5652   14.0567  -16.2331 O   0  0  0  0  0
   -2.9741   16.3134  -17.4934 O   0  0  0  0  0
   -5.0150   14.5239  -17.0247 O   0  0  0  0  0
   -3.2596   12.4672  -18.7954 O   0  0  0  0  0
   -2.3081    8.6240  -19.3252 O   0  0  0  0  0
   -3.9629    8.4537  -16.6795 O   0  0  0  0  0
   -3.0652    6.6686  -14.9731 O   0  0  0  0  0
   -2.7366    6.0915  -17.5045 O   0  0  0  0  0
   -5.8505    5.9448  -17.5979 O   0  0  0  0  0
   -7.8904    2.7547  -20.2663 O   0  0  0  0  0
   -6.1486    1.3088  -17.6026 O   0  0  0  0  0
   -7.0327   -0.6151  -16.0692 O   0  0  0  0  0
   -5.9184   -1.3578  -18.3546 O   0  0  0  0  0
   -2.7348   -4.0036  -17.0877 O   0  0  0  0  0
   -4.0914   -6.1731  -16.6854 O   0  0  0  0  0
   -2.3323   -7.7200  -17.8694 O   0  0  0  0  0
   -4.8496   -8.0200  -18.6843 O   0  0  0  0  0
   -1.7116   -8.9742  -21.1711 O   0  0  0  0  0
   -2.7965  -10.6170  -22.8865 O   0  0  0  0  0
   -5.2268   -8.9249  -21.5748 O   0  0  0  0  0
   -3.9827   -8.8757  -16.2244 O   0  0  0  0  0
   -6.2413   -3.6450  -17.1743 O   0  0  0  0  0
   -8.4075   -0.1599  -18.2396 O   0  0  0  0  0
   -5.0240    3.7527  -19.1690 O   0  0  0  0  0
   -1.6666   11.1216  -16.9387 O   0  0  0  0  0
   -2.9829   13.8298  -18.9162 C   0  0  0  0  0
   -2.0822   11.8332  -19.2041 C   0  0  0  0  0
   -1.7361   10.6808  -18.2737 C   0  0  0  0  0
   -2.7408    9.5610  -18.3876 C   0  0  0  0  0
   -2.7065    8.9662  -17.0215 C   0  0  0  0  0
   -5.3213    5.9754  -16.3103 C   0  0  0  0  0
   -6.5756    4.7560  -17.6485 C   0  0  0  0  0
   -6.3837    4.0828  -18.9968 C   0  0  0  0  0
   -7.2306    2.8285  -19.0398 C   0  0  0  0  0
   -6.2433    1.7076  -18.9405 C   0  0  0  0  0
   -4.8571   -1.6701  -17.4921 C   0  0  0  0  0
   -4.9493   -3.1175  -16.9994 C   0  0  0  0  0
   -3.9759   -4.0052  -17.7318 C   0  0  0  0  0
   -4.6406   -5.3589  -17.6849 C   0  0  0  0  0
   -4.2205   -7.5995  -19.8573 C   0  0  0  0  0
   -4.0618   -8.7759  -20.7996 C   0  0  0  0  0
   -2.9097   -8.5295  -21.7310 C   0  0  0  0  0
   -3.2966   -9.3149  -22.9476 C   0  0  0  0  0
   -4.8090   -9.3581  -22.8525 C   0  0  0  0  0
   -5.2574   -7.1618  -24.0264 C   0  0  0  0  0
   -6.4599   -7.7910  -25.6572 C   0  0  0  0  0
   -7.2268   -7.9344  -26.8047 C   0  0  0  0  0
   -7.3195  -10.2783  -26.3654 C   0  0  0  0  0
   -6.1521   -8.8765  -24.9133 C   0  0  0  0  0
   -6.0775   -5.0368  -17.3145 C   0  0  0  0  0
   -7.9582   -6.4878  -18.1308 C   0  0  0  0  0
   -8.0007   -6.0435  -20.2074 C   0  0  0  0  0
   -8.2177   -5.9674  -21.5769 C   0  0  0  0  0
   -6.4536   -4.3626  -21.6931 C   0  0  0  0  0
   -7.0394   -5.2892  -19.6345 C   0  0  0  0  0
   -4.9618    2.3699  -19.4128 C   0  0  0  0  0
   -2.9186    0.9015  -19.4009 C   0  0  0  0  0
   -2.0841    1.3000  -17.4879 C   0  0  0  0  0
   -1.3227    1.4014  -16.3325 C   0  0  0  0  0
   -2.9055    2.9868  -15.5139 C   0  0  0  0  0
   -3.2134    2.0270  -17.6166 C   0  0  0  0  0
   -2.2906   10.1402  -16.1420 C   0  0  0  0  0
   -4.5081   11.3583  -15.9323 C   0  0  0  0  0
   -4.7259   11.4651  -13.8207 C   0  0  0  0  0
   -5.0977   11.6898  -12.5007 C   0  0  0  0  0
   -3.0939   10.5853  -11.8234 C   0  0  0  0  0
   -3.5748   10.8124  -14.0941 C   0  0  0  0  0
   -5.3936   -8.5044  -23.8801 N   0  0  0  0  0
   -5.9132   -6.6852  -25.1236 N   0  0  0  0  0
   -7.5692   -6.8189  -27.6189 N   0  0  0  0  0
   -7.6441   -9.1911  -27.1395 N   0  0  0  0  0
   -6.5633  -10.1262  -25.2350 N   0  0  0  0  0
   -6.9897   -5.5589  -18.3242 N   0  0  0  0  0
   -8.6102   -6.8126  -19.2846 N   0  0  0  0  0
   -9.2161   -6.7542  -22.2160 N   0  0  0  0  0
   -7.4328   -5.1126  -22.2998 N   0  0  0  0  0
   -6.2461   -4.4497  -20.3446 N   0  0  0  0  0
   -3.7629    1.7858  -18.8134 N   0  0  0  0  0
   -1.8633    0.5763  -18.6000 N   0  0  0  0  0
   -0.1204    0.6566  -16.1684 N   0  0  0  0  0
   -1.7554    2.2557  -15.3581 N   0  0  0  0  0
   -3.6488    2.8771  -16.6566 N   0  0  0  0  0
   -3.4172   10.7311  -15.4184 N   0  0  0  0  0
   -5.3458   11.8251  -14.9605 N   0  0  0  0  0
   -6.2997   12.3783  -12.1704 N   0  0  0  0  0
   -4.2608   11.2405  -11.5175 N   0  0  0  0  0
   -2.7401   10.3631  -13.1271 N   0  0  0  0  0
  1  6  1  0  0  0
  1  7  1  0  0  0
  1 30  1  0  0  0
  2 10  1  0  0  0
  2 12  1  0  0  0
  2 35  1  0  0  0
  3 15  1  0  0  0
  3 17  1  0  0  0
  3 27  1  0  0  0
  4 19  1  0  0  0
  4 21  1  0  0  0
  4 25  1  0  0  0
 30  8  1  0  0  0
 31  8  1  0  0  0
 32 31  1  0  0  0
 32 33  1  0  0  0
 32 29  1  0  0  0
 33  9  1  0  0  0
 33 34  1  0  0  0
 34 10  1  0  0  0
 34 66  1  0  0  0
 35 13  1  0  0  0
 36 13  1  0  0  0
 37 36  1  0  0  0
 37 38  1  0  0  0
 37 28  1  0  0  0
 38 14  1  0  0  0
 38 39  1  0  0  0
 39 15  1  0  0  0
 39 60  1  0  0  0
 40 17  1  0  0  0
 41 40  1  0  0  0
 41 42  1  0  0  0
 41 26  1  0  0  0
 42 18  1  0  0  0
 42 43  1  0  0  0
 43 19  1  0  0  0
 43 54  1  0  0  0
 44 21  1  0  0  0
 45 44  1  0  0  0
 45 46  1  0  0  0
 45 24  1  0  0  0
 46 22  1  0  0  0
 46 47  1  0  0  0
 47 23  1  0  0  0
 47 48  1  0  0  0
 48 24  1  0  0  0
 48 72  1  0  0  0
 50 73  1  0  0  0
 51 74  1  0  0  0
 51 75  1  0  0  0
 52 76  1  0  0  0
 53 72  1  0  0  0
 53 50  1  0  0  0
 54 26  1  0  0  0
 54 77  1  0  0  0
 56 78  1  0  0  0
 57 79  1  0  0  0
 57 80  1  0  0  0
 58 81  1  0  0  0
 59 77  1  0  0  0
 59 56  1  0  0  0
 60 28  1  0  0  0
 60 82  1  0  0  0
 62 83  1  0  0  0
 63 84  1  0  0  0
 63 85  1  0  0  0
 64 86  1  0  0  0
 65 82  1  0  0  0
 65 62  1  0  0  0
 66 29  1  0  0  0
 66 87  1  0  0  0
 68 88  1  0  0  0
 69 89  1  0  0  0
 69 90  1  0  0  0
 70 91  1  0  0  0
 71 87  1  0  0  0
 71 68  1  0  0  0
 72 49  1  0  0  0
 77 55  1  0  0  0
 82 61  1  0  0  0
 87 67  1  0  0  0
  1  5  2  0  0  0
  2 11  2  0  0  0
  3 16  2  0  0  0
  4 20  2  0  0  0
 49 73  2  0  0  0
 50 51  2  0  0  0
 52 75  2  0  0  0
 53 76  2  0  0  0
 55 78  2  0  0  0
 56 57  2  0  0  0
 58 80  2  0  0  0
 59 81  2  0  0  0
 61 83  2  0  0  0
 62 63  2  0  0  0
 64 85  2  0  0  0
 65 86  2  0  0  0
 67 88  2  0  0  0
 68 69  2  0  0  0
 70 90  2  0  0  0
 71 91  2  0  0  0
M  END
> <rmsd>
0.693624258

$$$$
CHEMBL2431069 PubChem-73350912


 49 54  0  0  0  0  0  0  0  0999 V2000
   -7.6190  -10.3080  -24.3077 C   0  0  0  0  0
   -7.3559   -8.8557  -24.5047 C   0  0  0  0  0
   -6.7084   -7.0423  -25.3267 C   0  0  0  0  0
   -7.7276   -7.8214  -23.6724 C   0  0  0  0  0
   -8.4905   -7.9275  -22.3921 C   0  0  0  0  0
   -7.5248   -6.1450  -20.9810 C   0  0  0  0  0
   -6.6518   -5.7807  -19.8564 C   0  0  0  0  0
   -6.3270   -4.5664  -19.4133 C   0  0  0  0  0
   -8.2773   -2.8912  -18.7915 C   0  0  0  0  0
   -9.1785   -1.7382  -19.1530 C   0  0  0  0  0
   -7.9197   -0.9942  -17.3511 C   0  0  0  0  0
   -6.6231   -0.2744  -17.1816 C   0  0  0  0  0
   -4.2671    0.1172  -17.9771 C   0  0  0  0  0
   -3.0962   -0.6498  -17.9539 C   0  0  0  0  0
   -1.8519   -0.0274  -17.8207 C   0  0  0  0  0
   -1.7731    1.3651  -17.7235 C   0  0  0  0  0
   -2.9394    2.1446  -17.7637 C   0  0  0  0  0
   -2.8610    3.6107  -17.6914 C   0  0  0  0  0
   -3.9584    5.8018  -18.0146 C   0  0  0  0  0
   -4.1995    6.3201  -16.6339 C   0  0  0  0  0
   -4.1427    6.5543  -14.5551 C   0  0  0  0  0
   -4.8997    7.4561  -16.2867 C   0  0  0  0  0
   -5.6032    8.3948  -17.2073 C   0  0  0  0  0
   -4.1836    1.5129  -17.8954 C   0  0  0  0  0
   -7.6919   -2.4897  -17.4606 C   0  0  0  0  0
   -5.2973   -4.6485  -18.2965 C   0  0  0  0  0
   -3.9957   -3.9712  -18.7184 C   0  0  0  0  0
   -5.1502   -6.1749  -18.0278 C   0  0  0  0  0
   -3.9274   -6.8330  -18.4200 C   0  0  0  0  0
   -3.4443   -7.7216  -17.2651 C   0  0  0  0  0
   -3.5045   -9.2188  -17.5281 C   0  0  0  0  0
   -4.7240   -7.5281  -19.4871 C   0  0  0  0  0
   -6.7216   -8.3402  -25.5303 O   0  0  0  0  0
   -6.1822   -6.2179  -26.1161 O   0  0  0  0  0
   -7.3069   -6.6996  -24.2089 O   0  0  0  0  0
   -7.6909   -7.4960  -21.2982 O   0  0  0  0  0
   -8.1205   -5.2558  -21.6481 O   0  0  0  0  0
   -6.4640    0.4786  -16.1883 O   0  0  0  0  0
   -1.7874    4.1695  -17.3380 O   0  0  0  0  0
   -3.9783    4.3795  -18.0310 O   0  0  0  0  0
   -3.7350    5.7784  -15.5315 O   0  0  0  0  0
   -3.8889    6.3359  -13.3449 O   0  0  0  0  0
   -4.8494    7.5785  -14.9817 O   0  0  0  0  0
   -2.1397   -7.3610  -16.9165 O   0  0  0  0  0
   -4.4662   -8.3700  -20.3846 O   0  0  0  0  0
   -6.9561   -3.0064  -20.0420 S   0  0  0  0  0
   -8.6107   -0.5434  -18.5534 N   0  0  0  0  0
   -5.5340   -0.5394  -18.0675 N   0  0  0  0  0
   -5.8973   -6.7112  -19.1250 N   0  0  0  0  0
  1  2  1  0  0  0
  2 33  1  0  0  0
  3 33  1  0  0  0
  3 35  1  0  0  0
  4 35  1  0  0  0
  5  4  1  0  0  0
  5 36  1  0  0  0
  6 36  1  0  0  0
  6  7  1  0  0  0
  8 46  1  0  0  0
  9 46  1  0  0  0
  9 10  1  0  0  0
 10 47  1  0  0  0
 11 47  1  0  0  0
 11 12  1  0  0  0
 11 25  1  0  0  0
 12 48  1  0  0  0
 14 15  1  0  0  0
 16 17  1  0  0  0
 17 18  1  0  0  0
 18 40  1  0  0  0
 19 40  1  0  0  0
 19 20  1  0  0  0
 20 41  1  0  0  0
 21 41  1  0  0  0
 21 43  1  0  0  0
 22 43  1  0  0  0
 23 22  1  0  0  0
 24 13  1  0  0  0
 25  9  1  0  0  0
 26  8  1  0  0  0
 26 27  1  0  0  0
 26 28  1  0  0  0
 28 29  1  0  0  0
 28 49  1  0  0  0
 29 30  1  0  0  0
 29 32  1  0  0  0
 30 31  1  0  0  0
 30 44  1  0  0  0
 32 49  1  0  0  0
 48 13  1  0  0  0
 49  7  1  0  0  0
  3 34  2  0  0  0
  4  2  2  0  0  0
  6 37  2  0  0  0
  7  8  2  0  0  0
 12 38  2  0  0  0
 13 14  2  0  0  0
 15 16  2  0  0  0
 17 24  2  0  0  0
 18 39  2  0  0  0
 21 42  2  0  0  0
 22 20  2  0  0  0
 32 45  2  0  0  0
M  END
> <rmsd>
0.744822264

$$$$
CHEMBL607917 PubChem-46876888


 47 51  0  0  0  0  0  0  0  0999 V2000
   -0.1836    2.1455  -17.0355 N   0  0  0  0  0
   -1.4470    1.1143  -18.8303 N   0  0  0  0  0
   -3.5934    0.1529  -18.4612 N   0  0  0  0  0
   -2.5243    1.3520  -15.3465 N   0  0  0  0  0
   -4.3446    0.2858  -16.1646 N   0  0  0  0  0
   -4.8742  -11.9980  -19.9049 N   0  0  0  0  0
   -3.2997  -12.5714  -18.2369 N   0  0  0  0  0
   -1.3362    1.4615  -17.5132 C   0  0  0  0  0
   -2.5611    0.4664  -19.3033 C   0  0  0  0  0
   -3.4727    0.4985  -17.1564 C   0  0  0  0  0
   -2.3887    1.1381  -16.6686 C   0  0  0  0  0
   -3.7454    0.8127  -15.0672 C   0  0  0  0  0
   -5.6417   -0.3786  -16.2097 C   0  0  0  0  0
   -6.4787   -1.8771  -17.6881 C   0  0  0  0  0
   -5.9158   -2.7420  -18.8042 C   0  0  0  0  0
   -4.8025   -9.2300  -17.3665 C   0  0  0  0  0
   -4.5010  -10.5204  -18.0569 C   0  0  0  0  0
   -5.1608  -10.8435  -19.2404 C   0  0  0  0  0
   -5.5751  -12.3094  -21.1520 C   0  0  0  0  0
   -6.9351  -12.9034  -20.8676 C   0  0  0  0  0
   -7.7740  -12.3832  -21.9891 C   0  0  0  0  0
   -7.0372  -11.1375  -22.4408 C   0  0  0  0  0
   -7.7477   -9.8908  -21.9378 C   0  0  0  0  0
   -3.9439  -12.8643  -19.3980 C   0  0  0  0  0
   -3.5584  -11.4248  -17.5573 C   0  0  0  0  0
   -6.8910   -0.5268  -18.2209 C   0  0  0  0  0
   -6.6115    0.4053  -17.0725 C   0  0  0  0  0
   -5.4923   -1.6902  -16.7045 O   0  0  0  0  0
   -6.9206   -3.0796  -19.7150 O   0  0  0  0  0
   -7.6857   -5.2227  -18.4281 O   0  0  0  0  0
   -7.9154   -5.2747  -21.0338 O   0  0  0  0  0
   -5.4251   -5.4240  -19.7681 O   0  0  0  0  0
   -6.6575   -7.7464  -19.3055 O   0  0  0  0  0
   -5.8933   -7.2805  -21.7594 O   0  0  0  0  0
   -4.0609   -7.8420  -19.7960 O   0  0  0  0  0
   -2.3717   -8.1247  -17.8249 O   0  0  0  0  0
   -4.2812   -6.4091  -17.3875 O   0  0  0  0  0
   -7.7800  -13.3125  -23.0350 O   0  0  0  0  0
   -8.9424   -9.7056  -22.6336 O   0  0  0  0  0
   -5.7164  -11.1548  -21.9497 O   0  0  0  0  0
   -3.6729  -13.9394  -19.9986 O   0  0  0  0  0
   -2.9424  -11.1843  -16.4864 O   0  0  0  0  0
   -8.2432   -0.5360  -18.5765 O   0  0  0  0  0
   -7.7664    0.6667  -16.3309 O   0  0  0  0  0
   -6.9999   -4.7740  -19.6999 P   0  0  0  0  0
   -5.5549   -7.0893  -20.1129 P   0  0  0  0  0
   -3.8355   -7.8758  -18.1072 P   0  0  0  0  0
  1  8  1  0  0  0
  5 10  1  0  0  0
  6 24  1  0  0  0
  7 25  1  0  0  0
  9  2  1  0  0  0
 10  3  1  0  0  0
 11  4  1  0  0  0
 11  8  1  0  0  0
 12  5  1  0  0  0
 13  5  1  0  0  0
 13 28  1  0  0  0
 14 28  1  0  0  0
 14 15  1  0  0  0
 14 26  1  0  0  0
 15 29  1  0  0  0
 16 17  1  0  0  0
 18  6  1  0  0  0
 19  6  1  0  0  0
 19 20  1  0  0  0
 19 40  1  0  0  0
 20 21  1  0  0  0
 21 38  1  0  0  0
 21 22  1  0  0  0
 22 23  1  0  0  0
 22 40  1  0  0  0
 23 39  1  0  0  0
 24  7  1  0  0  0
 25 17  1  0  0  0
 26 43  1  0  0  0
 26 27  1  0  0  0
 27 44  1  0  0  0
 27 13  1  0  0  0
 45 29  1  0  0  0
 45 31  1  0  0  0
 45 32  1  0  0  0
 46 32  1  0  0  0
 46 34  1  0  0  0
 46 35  1  0  0  0
 47 35  1  0  0  0
 47 37  1  0  0  0
 47 16  1  0  0  0
  8  2  2  0  0  0
  9  3  2  0  0  0
 10 11  2  0  0  0
 12  4  2  0  0  0
 17 18  2  0  0  0
 24 41  2  0  0  0
 25 42  2  0  0  0
 45 30  2  0  0  0
 46 33  2  0  0  0
 47 36  2  0  0  0
M  END
> <rmsd>
0.667904794

$$$$
CHEMBL1092358 PubChem-46883746


 55 59  0  0  0  0  0  0  0  0999 V2000
   -7.8794    3.2314  -15.2820 C   0  0  0  0  0
   -6.5103    3.7919  -15.6356 C   0  0  0  0  0
   -6.6370    5.0453  -16.5070 C   0  0  0  0  0
   -4.3972    5.7835  -16.0979 C   0  0  0  0  0
   -4.3701    7.2847  -15.8833 C   0  0  0  0  0
   -4.8194    4.3517  -17.9256 C   0  0  0  0  0
   -5.4468    4.3292  -19.3095 C   0  0  0  0  0
   -7.1902   -0.8986  -18.6498 C   0  0  0  0  0
   -6.7058   -0.6968  -20.0765 C   0  0  0  0  0
   -4.7015    0.2200  -20.6456 C   0  0  0  0  0
   -2.7885    1.4818  -19.7610 C   0  0  0  0  0
   -1.8819    1.0327  -17.6210 C   0  0  0  0  0
   -2.7976    0.0027  -17.4356 C   0  0  0  0  0
   -3.7120   -0.2580  -18.4530 C   0  0  0  0  0
   -4.6414   -1.2103  -21.1327 C   0  0  0  0  0
   -5.8238   -1.8563  -20.4870 C   0  0  0  0  0
   -4.5468   -5.0526  -21.1806 C   0  0  0  0  0
   -4.3891   -6.5528  -21.3705 C   0  0  0  0  0
   -3.0032   -7.9437  -22.4731 C   0  0  0  0  0
   -3.2438  -10.4221  -22.8259 C   0  0  0  0  0
   -4.2318  -11.2795  -23.1577 C   0  0  0  0  0
   -5.0418   -9.3193  -23.1118 C   0  0  0  0  0
   -3.9656  -12.6373  -23.2566 C   0  0  0  0  0
   -1.7008  -12.1647  -22.6757 C   0  0  0  0  0
   -2.5049   -7.9693  -21.0459 C   0  0  0  0  0
   -3.5019   -7.1412  -20.2908 C   0  0  0  0  0
   -5.3677    5.4501  -17.1308 N   0  0  0  0  0
   -3.3776    7.6148  -14.8758 N   0  0  0  0  0
   -4.9770    5.4665  -20.0822 N   0  0  0  0  0
   -3.7037    0.4787  -19.6026 N   0  0  0  0  0
   -1.8927    1.7497  -18.7739 N   0  0  0  0  0
   -0.9383    1.3370  -16.6008 N   0  0  0  0  0
   -3.7299   -9.1770  -22.7849 N   0  0  0  0  0
   -5.3868  -10.6164  -23.3478 N   0  0  0  0  0
   -2.6889  -13.0563  -23.0096 N   0  0  0  0  0
   -1.9738  -10.8278  -22.5815 N   0  0  0  0  0
   -4.9823  -13.5694  -23.6058 N   0  0  0  0  0
   -8.7750    2.6498  -16.7635 S   0  0  0  0  0
   -7.5972    0.9015  -16.9976 P   0  0  0  0  0
   -6.7802   -4.1381  -20.6469 P   0  0  0  0  0
   -3.8306   -7.5789  -17.8732 P   0  0  0  0  0
   -7.7060    0.0472  -15.7515 O   0  0  0  0  0
   -8.1764    0.0427  -18.3434 O   0  0  0  0  0
   -5.9947    0.5154  -20.1733 O   0  0  0  0  0
   -2.7701    2.1727  -20.8150 O   0  0  0  0  0
   -6.4899   -2.6545  -21.4218 O   0  0  0  0  0
   -7.7368   -3.9332  -19.4928 O   0  0  0  0  0
   -5.3310   -4.7923  -20.0537 O   0  0  0  0  0
   -3.8321   -6.8182  -22.6337 O   0  0  0  0  0
   -4.2700   -7.9692  -19.4659 O   0  0  0  0  0
   -2.3899   -7.9672  -17.6294 O   0  0  0  0  0
   -4.8243   -8.4317  -16.8032 O   0  0  0  0  0
   -4.0223   -5.9207  -17.5979 O   0  0  0  0  0
   -7.4845   -5.2118  -21.7514 O   0  0  0  0  0
   -5.9809    1.3476  -17.2381 O   0  0  0  0  0
  1  2  1  0  0  0
  1 38  1  0  0  0
  2  3  1  0  0  0
  3 27  1  0  0  0
  4 27  1  0  0  0
  4  5  1  0  0  0
  5 28  1  0  0  0
  6 27  1  0  0  0
  6  7  1  0  0  0
  7 29  1  0  0  0
  8 43  1  0  0  0
  9  8  1  0  0  0
  9 44  1  0  0  0
 10 44  1  0  0  0
 10 30  1  0  0  0
 10 15  1  0  0  0
 11 31  1  0  0  0
 12 13  1  0  0  0
 12 32  1  0  0  0
 14 30  1  0  0  0
 15 16  1  0  0  0
 16 46  1  0  0  0
 16  9  1  0  0  0
 17 48  1  0  0  0
 18 17  1  0  0  0
 18 49  1  0  0  0
 19 49  1  0  0  0
 19 33  1  0  0  0
 19 25  1  0  0  0
 20 36  1  0  0  0
 21 34  1  0  0  0
 21 23  1  0  0  0
 22 33  1  0  0  0
 23 37  1  0  0  0
 24 35  1  0  0  0
 25 26  1  0  0  0
 26 50  1  0  0  0
 26 18  1  0  0  0
 30 11  1  0  0  0
 33 20  1  0  0  0
 39 38  1  0  0  0
 39 43  1  0  0  0
 39 55  1  0  0  0
 40 46  1  0  0  0
 40 48  1  0  0  0
 40 54  1  0  0  0
 41 50  1  0  0  0
 41 52  1  0  0  0
 41 53  1  0  0  0
 11 45  2  0  0  0
 12 31  2  0  0  0
 13 14  2  0  0  0
 20 21  2  0  0  0
 22 34  2  0  0  0
 23 35  2  0  0  0
 24 36  2  0  0  0
 39 42  2  0  0  0
 40 47  2  0  0  0
 41 51  2  0  0  0
M  END
> <rmsd>
0.603622913

$$$$
CHEMBL3251364 PubChem-90655755


 41 43  0  0  0  0  0  0  0  0999 V2000
   -2.0106    5.2138  -13.4272 O   0  0  0  0  0
   -5.5612   -1.8215  -16.9233 O   0  0  0  0  0
   -7.0432   -3.0099  -19.9670 O   0  0  0  0  0
   -7.6871   -5.0530  -18.4713 O   0  0  0  0  0
   -8.0969   -5.3143  -21.0445 O   0  0  0  0  0
   -5.5240   -5.3326  -19.9606 O   0  0  0  0  0
   -6.0466   -7.4045  -21.4731 O   0  0  0  0  0
   -6.7950   -7.6471  -18.9851 O   0  0  0  0  0
   -4.1303   -7.7369  -19.7379 O   0  0  0  0  0
   -4.6459   -7.5504  -17.1459 O   0  0  0  0  0
   -2.1582   -7.9376  -17.8195 O   0  0  0  0  0
   -3.3863   -5.5176  -18.2187 O   0  0  0  0  0
   -8.2076   -0.3441  -18.7367 O   0  0  0  0  0
   -7.8158    0.4535  -16.2962 O   0  0  0  0  0
   -0.8802    4.8217  -13.0317 C   0  0  0  0  0
   -0.7401    4.2024  -11.6862 C   0  0  0  0  0
    0.2041    5.6296  -15.1591 C   0  0  0  0  0
    1.5618    5.5656  -15.8424 C   0  0  0  0  0
    1.8707    4.1426  -16.2732 C   0  0  0  0  0
    1.1275    3.8146  -17.5561 C   0  0  0  0  0
    0.9514    2.3139  -17.6867 C   0  0  0  0  0
   -1.2961    1.2114  -17.3869 C   0  0  0  0  0
   -2.4694    0.2598  -19.2373 C   0  0  0  0  0
   -3.4548    0.2676  -17.1232 C   0  0  0  0  0
   -2.3799    0.8812  -16.5850 C   0  0  0  0  0
   -3.8085    0.5680  -15.0429 C   0  0  0  0  0
   -5.6798   -0.5736  -16.2767 C   0  0  0  0  0
   -6.5351   -1.8534  -17.9344 C   0  0  0  0  0
   -5.9931   -2.5997  -19.1414 C   0  0  0  0  0
   -6.8789   -0.4353  -18.3108 C   0  0  0  0  0
   -6.6381    0.3246  -17.0361 C   0  0  0  0  0
    0.0064    5.6507  -10.3022 I   0  0  0  0  0
    0.2762    4.9931  -13.8516 N   0  0  0  0  0
   -0.1553    1.8822  -16.8451 N   0  0  0  0  0
   -1.3672    0.8869  -18.7148 N   0  0  0  0  0
   -3.5318   -0.0581  -18.4371 N   0  0  0  0  0
   -2.5685    1.0895  -15.2677 N   0  0  0  0  0
   -4.3685    0.0561  -16.1681 N   0  0  0  0  0
   -7.0993   -4.7009  -19.8215 P   0  0  0  0  0
   -5.6437   -7.0291  -20.0645 P   0  0  0  0  0
   -3.6259   -7.1916  -18.2047 P   0  0  0  0  0
 15 33  1  0  0  0
 16 15  1  0  0  0
 16 32  1  0  0  0
 17 33  1  0  0  0
 17 18  1  0  0  0
 18 19  1  0  0  0
 19 20  1  0  0  0
 20 21  1  0  0  0
 21 34  1  0  0  0
 23 35  1  0  0  0
 24 36  1  0  0  0
 25 37  1  0  0  0
 25 22  1  0  0  0
 26 38  1  0  0  0
 27 38  1  0  0  0
 27  2  1  0  0  0
 28  2  1  0  0  0
 28 29  1  0  0  0
 28 30  1  0  0  0
 29  3  1  0  0  0
 30 13  1  0  0  0
 30 31  1  0  0  0
 31 14  1  0  0  0
 31 27  1  0  0  0
 34 22  1  0  0  0
 38 24  1  0  0  0
 39  3  1  0  0  0
 39  5  1  0  0  0
 39  6  1  0  0  0
 40  6  1  0  0  0
 40  8  1  0  0  0
 40  9  1  0  0  0
 41  9  1  0  0  0
 41 11  1  0  0  0
 41 12  1  0  0  0
 15  1  2  0  0  0
 22 35  2  0  0  0
 23 36  2  0  0  0
 24 25  2  0  0  0
 26 37  2  0  0  0
 39  4  2  0  0  0
 40  7  2  0  0  0
 41 10  2  0  0  0
M  END
> <rmsd>
0.700991869

$$$$
CHEMBL409017 PubChem-44298420


 74 81  0  0  0  0  0  0  0  0999 V2000
   -6.4296   -6.1348  -20.8481 C   0  0  0  0  0
   -5.0593   -5.6310  -20.3197 C   0  0  0  0  0
   -4.2443   -6.6075  -19.4275 C   0  0  0  0  0
   -4.9606   -7.7797  -18.7705 C   0  0  0  0  0
   -6.4234   -8.0294  -19.1484 C   0  0  0  0  0
   -7.1629   -6.8061  -19.6755 C   0  0  0  0  0
   -3.5063   -7.6906  -20.1725 C   0  0  0  0  0
   -2.4582   -6.4437  -17.6322 C   0  0  0  0  0
   -1.5556   -5.5293  -16.8892 C   0  0  0  0  0
   -4.2235   -4.7103  -21.2639 C   0  0  0  0  0
   -4.1188   -3.2113  -20.8222 C   0  0  0  0  0
   -5.4877   -2.4813  -20.9873 C   0  0  0  0  0
   -6.4662   -3.0869  -19.9737 C   0  0  0  0  0
   -6.0491   -3.2092  -18.6885 C   0  0  0  0  0
   -4.6700   -2.6898  -18.3316 C   0  0  0  0  0
   -3.6055   -3.1317  -19.3575 C   0  0  0  0  0
   -4.2730   -2.1378  -15.9305 C   0  0  0  0  0
   -5.1952   -0.9374  -15.8535 C   0  0  0  0  0
   -4.4559    0.4055  -15.9168 C   0  0  0  0  0
   -4.2650    1.4379  -13.6247 C   0  0  0  0  0
   -3.5431    1.5657  -12.3465 C   0  0  0  0  0
   -2.3378    0.8785  -12.1471 C   0  0  0  0  0
   -1.6576    0.9835  -10.9312 C   0  0  0  0  0
   -2.1764    1.7745   -9.9042 C   0  0  0  0  0
   -3.3757    2.4650  -10.0955 C   0  0  0  0  0
   -4.0575    2.3604  -11.3127 C   0  0  0  0  0
   -3.5638    0.5552  -17.1168 C   0  0  0  0  0
   -2.1733    0.3567  -17.0227 C   0  0  0  0  0
   -1.3484    0.5579  -18.1340 C   0  0  0  0  0
   -1.9106    0.9579  -19.3492 C   0  0  0  0  0
   -3.2917    1.1574  -19.4506 C   0  0  0  0  0
   -4.1200    0.9585  -18.3382 C   0  0  0  0  0
   -7.3448   -0.1797  -16.8855 C   0  0  0  0  0
   -9.4244    0.0589  -18.2180 C   0  0  0  0  0
  -10.7236   -0.4246  -18.3896 C   0  0  0  0  0
  -11.6472    0.2585  -19.1971 C   0  0  0  0  0
  -13.9401    0.4242  -20.2243 C   0  0  0  0  0
  -13.4198   -1.4571  -18.6823 C   0  0  0  0  0
  -11.2350    1.4408  -19.8416 C   0  0  0  0  0
   -9.9386    1.9299  -19.6714 C   0  0  0  0  0
   -9.0347    1.2406  -18.8618 C   0  0  0  0  0
   -6.8855   -3.9133  -17.6614 C   0  0  0  0  0
   -7.6919   -3.8374  -20.4277 C   0  0  0  0  0
   -7.3055   -4.9827  -21.3445 C   0  0  0  0  0
   -9.9756   -3.1722  -21.0967 C   0  0  0  0  0
  -10.8628   -2.1721  -21.7503 C   0  0  0  0  0
   -5.3635   -0.9844  -20.7081 C   0  0  0  0  0
   -5.9607   -2.5870  -22.4376 C   0  0  0  0  0
   -2.4550   -5.5517  -22.7675 C   0  0  0  0  0
   -1.1823   -6.2688  -22.9082 C   0  0  0  0  0
   -0.5352   -6.7766  -21.7757 C   0  0  0  0  0
    0.6631   -7.4860  -21.9063 C   0  0  0  0  0
    1.2246   -7.6828  -23.1680 C   0  0  0  0  0
    0.5863   -7.1754  -24.2998 C   0  0  0  0  0
   -0.6162   -6.4751  -24.1733 C   0  0  0  0  0
   -6.1919   -7.1444  -21.9811 C   0  0  0  0  0
   -8.4502   -7.1955  -20.0505 O   0  0  0  0  0
   -4.1784   -8.7154  -19.4771 O   0  0  0  0  0
   -3.3967   -5.8901  -18.5192 O   0  0  0  0  0
   -2.3662   -7.6853  -17.4433 O   0  0  0  0  0
   -4.2627   -3.0358  -17.0109 O   0  0  0  0  0
   -3.4820   -2.3493  -14.9725 O   0  0  0  0  0
   -5.3663    2.0410  -13.7938 O   0  0  0  0  0
   -6.2477   -1.0347  -16.8011 O   0  0  0  0  0
   -7.2876    1.0100  -16.4497 O   0  0  0  0  0
   -8.5256   -0.6835  -17.4479 O   0  0  0  0  0
   -7.7300   -4.9884  -22.4918 O   0  0  0  0  0
   -8.6029   -2.9386  -21.0485 O   0  0  0  0  0
  -10.4757   -4.2116  -20.5973 O   0  0  0  0  0
   -3.1700   -2.5825  -21.6403 O   0  0  0  0  0
   -2.9213   -5.2413  -21.4885 O   0  0  0  0  0
   -3.1061   -5.1874  -23.7919 O   0  0  0  0  0
   -3.7201    0.6366  -14.6744 N   0  0  0  0  0
  -12.9842   -0.2455  -19.3576 N   0  0  0  0  0
  1  2  1  0  0  0
  1 56  1  0  0  0
  1 44  1  0  0  0
  2  3  1  0  0  0
  2 10  1  0  0  0
  3  4  1  0  0  0
  3 59  1  0  0  0
  4  5  1  0  0  0
  4 58  1  0  0  0
  5  6  1  0  0  0
  6 57  1  0  0  0
  6  1  1  0  0  0
  7 58  1  0  0  0
  7  3  1  0  0  0
  8 59  1  0  0  0
  9  8  1  0  0  0
 10 11  1  0  0  0
 10 71  1  0  0  0
 11 12  1  0  0  0
 11 70  1  0  0  0
 12 13  1  0  0  0
 12 47  1  0  0  0
 12 48  1  0  0  0
 15 14  1  0  0  0
 15 16  1  0  0  0
 15 61  1  0  0  0
 16 11  1  0  0  0
 17 61  1  0  0  0
 18 17  1  0  0  0
 18 19  1  0  0  0
 18 64  1  0  0  0
 19 73  1  0  0  0
 19 27  1  0  0  0
 20 21  1  0  0  0
 22 23  1  0  0  0
 24 25  1  0  0  0
 26 21  1  0  0  0
 28 29  1  0  0  0
 30 31  1  0  0  0
 32 27  1  0  0  0
 33 64  1  0  0  0
 33 66  1  0  0  0
 34 66  1  0  0  0
 35 36  1  0  0  0
 36 74  1  0  0  0
 37 74  1  0  0  0
 38 74  1  0  0  0
 39 40  1  0  0  0
 41 34  1  0  0  0
 42 14  1  0  0  0
 43 13  1  0  0  0
 43 44  1  0  0  0
 43 68  1  0  0  0
 45 68  1  0  0  0
 46 45  1  0  0  0
 49 71  1  0  0  0
 49 50  1  0  0  0
 51 52  1  0  0  0
 53 54  1  0  0  0
 55 50  1  0  0  0
 73 20  1  0  0  0
  8 60  2  0  0  0
 13 14  2  0  0  0
 17 62  2  0  0  0
 20 63  2  0  0  0
 21 22  2  0  0  0
 23 24  2  0  0  0
 25 26  2  0  0  0
 27 28  2  0  0  0
 29 30  2  0  0  0
 31 32  2  0  0  0
 33 65  2  0  0  0
 34 35  2  0  0  0
 36 39  2  0  0  0
 40 41  2  0  0  0
 44 67  2  0  0  0
 45 69  2  0  0  0
 49 72  2  0  0  0
 50 51  2  0  0  0
 52 53  2  0  0  0
 54 55  2  0  0  0
M  END
> <rmsd>
0.721253812

$$$$
CHEMBL2304368 PubChem-136240985


105116  0  0  0  0  0  0  0  0999 V2000
   -2.1153   -0.0763  -17.4515 C   0  0  0  0  0
   -3.3205    0.0857  -18.1377 C   0  0  0  0  0
   -3.5904    1.4448  -18.1117 C   0  0  0  0  0
   -2.5637    2.0458  -17.4148 C   0  0  0  0  0
   -0.2492    2.5270  -15.5585 C   0  0  0  0  0
    0.7585    2.2658  -14.4557 C   0  0  0  0  0
    1.1270    3.5587  -13.7165 C   0  0  0  0  0
   -1.0587    4.5017  -13.3234 C   0  0  0  0  0
   -0.2009    2.8912  -11.7965 C   0  0  0  0  0
    0.7449    5.0427  -11.9193 C   0  0  0  0  0
   -2.5253    3.4286  -17.2182 C   0  0  0  0  0
   -3.5724    4.2011  -17.7484 C   0  0  0  0  0
   -4.6293    3.5882  -18.4546 C   0  0  0  0  0
   -4.6479    2.1938  -18.6473 C   0  0  0  0  0
   -5.8134    1.5612  -19.3388 C   0  0  0  0  0
   -6.9740    0.4834  -17.4628 C   0  0  0  0  0
   -7.4048   -0.9168  -17.8046 C   0  0  0  0  0
   -6.2480   -1.7397  -18.4040 C   0  0  0  0  0
   -6.5314   -3.2588  -18.5480 C   0  0  0  0  0
   -5.6295   -4.1728  -17.7678 C   0  0  0  0  0
   -3.9886   -5.6771  -17.4380 C   0  0  0  0  0
   -2.7882   -6.4617  -17.7915 C   0  0  0  0  0
   -1.6301   -4.5085  -18.9149 C   0  0  0  0  0
   -0.5786   -4.2471  -19.9517 C   0  0  0  0  0
    1.1481   -4.6301  -21.3340 C   0  0  0  0  0
    2.1869   -5.4350  -21.9879 C   0  0  0  0  0
    1.9851   -5.9897  -23.2661 C   0  0  0  0  0
    0.7069   -5.8921  -23.9881 C   0  0  0  0  0
   -1.4552   -6.2911  -24.4452 C   0  0  0  0  0
   -2.8007   -6.8211  -24.1948 C   0  0  0  0  0
   -4.3990   -8.0483  -22.6491 C   0  0  0  0  0
   -5.5126   -7.0534  -22.7069 C   0  0  0  0  0
   -7.8868   -6.5789  -23.5683 C   0  0  0  0  0
   -8.8726   -6.9404  -24.4009 C   0  0  0  0  0
  -11.2077   -6.6297  -25.1533 C   0  0  0  0  0
   -8.6930   -8.1131  -25.3170 C   0  0  0  0  0
   -8.0986   -5.4638  -22.6377 C   0  0  0  0  0
   -8.3435   -4.4734  -20.6449 C   0  0  0  0  0
   -8.6733   -4.4222  -19.2195 C   0  0  0  0  0
   -8.0373   -3.3286  -21.3941 C   0  0  0  0  0
   -4.3776   -8.7411  -21.2884 C   0  0  0  0  0
   -3.4569   -9.9462  -21.3172 C   0  0  0  0  0
   -1.0919   -5.7366  -25.6749 C   0  0  0  0  0
    3.0399   -6.6596  -23.8808 C   0  0  0  0  0
    4.2714   -6.7845  -23.2468 C   0  0  0  0  0
    4.4514   -6.2108  -21.9720 C   0  0  0  0  0
    5.7458   -6.2522  -21.2520 C   0  0  0  0  0
    7.2479   -5.7656  -19.6397 C   0  0  0  0  0
    7.7240   -5.1454  -18.3947 C   0  0  0  0  0
    7.1105   -3.8980  -16.2741 C   0  0  0  0  0
    6.6222   -2.7268  -15.8914 C   0  0  0  0  0
    7.8353   -4.7439  -15.2962 C   0  0  0  0  0
    8.0761   -6.5629  -20.4324 C   0  0  0  0  0
    0.9188   -3.2983  -21.6850 C   0  0  0  0  0
   -1.3002   -3.7762  -17.6234 C   0  0  0  0  0
   -1.3936   -1.3466  -17.2618 C   0  0  0  0  0
   -4.6595   -5.8549  -16.2245 C   0  0  0  0  0
   -4.1773   -0.9916  -18.7232 C   0  0  0  0  0
   -9.6360   -0.6682  -17.9527 C   0  0  0  0  0
  -10.5854    0.2689  -18.7218 C   0  0  0  0  0
  -11.8863    0.4555  -17.9431 C   0  0  0  0  0
  -12.4294   -0.9001  -17.4298 C   0  0  0  0  0
  -11.5294   -2.0772  -17.8984 C   0  0  0  0  0
  -12.0456   -3.4448  -17.4911 C   0  0  0  0  0
  -11.6770   -1.2632  -15.1229 C   0  0  0  0  0
  -13.9064   -1.7487  -15.7481 C   0  0  0  0  0
  -12.9182    1.0650  -18.8732 C   0  0  0  0  0
   -1.6691    1.1223  -17.0036 N   0  0  0  0  0
    0.1488    3.9771  -12.7019 N   0  0  0  0  0
   -4.5266   -4.7580  -18.2879 N   0  0  0  0  0
   -1.7672   -5.9324  -18.6452 N   0  0  0  0  0
    0.3232   -5.1521  -20.3826 N   0  0  0  0  0
   -0.4629   -6.3760  -23.5164 N   0  0  0  0  0
   -3.1127   -7.4125  -22.9305 N   0  0  0  0  0
   -6.6706   -7.3461  -23.5116 N   0  0  0  0  0
   -8.3820   -5.6451  -21.3325 N   0  0  0  0  0
   -7.9230   -3.6194  -18.3094 N   0  0  0  0  0
    5.9703   -5.5989  -20.0892 N   0  0  0  0  0
    6.8322   -4.3481  -17.6061 N   0  0  0  0  0
    7.9791   -6.1437  -15.5179 N   0  0  0  0  0
    3.4058   -5.5530  -21.3911 N   0  0  0  0  0
  -12.7807   -0.8590  -15.9910 N   0  0  0  0  0
   -0.5594    1.2959  -16.1920 O   0  0  0  0  0
   -6.9121    1.4703  -18.4435 O   0  0  0  0  0
   -6.7061    0.7783  -16.2691 O   0  0  0  0  0
   -2.6458   -7.6209  -17.3223 O   0  0  0  0  0
   -3.6716   -6.7800  -25.1054 O   0  0  0  0  0
   -5.4268   -5.9796  -22.0511 O   0  0  0  0  0
  -10.0721   -6.2186  -24.4119 O   0  0  0  0  0
   -9.6230   -5.1237  -18.7899 O   0  0  0  0  0
   -3.9620   -7.8601  -20.2864 O   0  0  0  0  0
    8.9314   -5.2861  -18.0488 O   0  0  0  0  0
    8.2898   -4.2433  -14.2370 O   0  0  0  0  0
    5.2844   -7.4746  -23.8982 O   0  0  0  0  0
   -2.0149   -2.5511  -17.5869 O   0  0  0  0  0
   -0.2165   -1.3455  -16.8060 O   0  0  0  0  0
   -5.0357   -1.4956  -17.7377 O   0  0  0  0  0
   -8.4771   -0.8842  -18.7112 O   0  0  0  0  0
  -10.1815   -1.9087  -17.5095 O   0  0  0  0  0
  -11.6576    1.3460  -16.8887 O   0  0  0  0  0
   -7.7967   -3.8500  -22.9797 S   0  0  0  0  0
    0.5435   -5.3652  -25.5702 S   0  0  0  0  0
    7.1411   -7.0570  -21.7361 S   0  0  0  0  0
   -0.3697   -2.7754  -20.7361 S   0  0  0  0  0
   -5.9658   -4.7931  -16.2430 S   0  0  0  0  0
  2  3  1  0  0  0
  4 68  1  0  0  0
  4 11  1  0  0  0
  5 83  1  0  0  0
  5  6  1  0  0  0
  6  7  1  0  0  0
  7 69  1  0  0  0
 12 13  1  0  0  0
 14  3  1  0  0  0
 15 14  1  0  0  0
 15 84  1  0  0  0
 16 84  1  0  0  0
 17 16  1  0  0  0
 17 18  1  0  0  0
 17 98  1  0  0  0
 18 19  1  0  0  0
 18 97  1  0  0  0
 19 20  1  0  0  0
 19 77  1  0  0  0
 20105  1  0  0  0
 21 70  1  0  0  0
 21 22  1  0  0  0
 22 71  1  0  0  0
 23 71  1  0  0  0
 23 24  1  0  0  0
 23 55  1  0  0  0
 24104  1  0  0  0
 25 72  1  0  0  0
 25 26  1  0  0  0
 26 81  1  0  0  0
 27 28  1  0  0  0
 27 44  1  0  0  0
 28102  1  0  0  0
 29 73  1  0  0  0
 29 30  1  0  0  0
 30 74  1  0  0  0
 31 74  1  0  0  0
 31 32  1  0  0  0
 31 41  1  0  0  0
 32 75  1  0  0  0
 33 37  1  0  0  0
 34 89  1  0  0  0
 35 89  1  0  0  0
 36 34  1  0  0  0
 37101  1  0  0  0
 38 76  1  0  0  0
 38 39  1  0  0  0
 39 77  1  0  0  0
 40101  1  0  0  0
 41 91  1  0  0  0
 41 42  1  0  0  0
 43102  1  0  0  0
 45 46  1  0  0  0
 45 94  1  0  0  0
 46 47  1  0  0  0
 47103  1  0  0  0
 48 78  1  0  0  0
 48 49  1  0  0  0
 49 79  1  0  0  0
 50 52  1  0  0  0
 52 80  1  0  0  0
 53103  1  0  0  0
 54104  1  0  0  0
 55 95  1  0  0  0
 56 95  1  0  0  0
 56  1  1  0  0  0
 57105  1  0  0  0
 58 97  1  0  0  0
 58  2  1  0  0  0
 59 98  1  0  0  0
 59 60  1  0  0  0
 59 99  1  0  0  0
 60 61  1  0  0  0
 61 62  1  0  0  0
 61100  1  0  0  0
 61 67  1  0  0  0
 62 63  1  0  0  0
 62 82  1  0  0  0
 63 99  1  0  0  0
 63 64  1  0  0  0
 65 82  1  0  0  0
 66 82  1  0  0  0
 68 83  1  0  0  0
 68  1  1  0  0  0
 69  8  1  0  0  0
 69  9  1  0  0  0
 69 10  1  0  0  0
 75 33  1  0  0  0
 79 50  1  0  0  0
  1  2  2  0  0  0
  3  4  2  0  0  0
 11 12  2  0  0  0
 13 14  2  0  0  0
 16 85  2  0  0  0
 20 70  2  0  0  0
 21 57  2  0  0  0
 22 86  2  0  0  0
 24 72  2  0  0  0
 25 54  2  0  0  0
 26 27  2  0  0  0
 28 73  2  0  0  0
 29 43  2  0  0  0
 30 87  2  0  0  0
 32 88  2  0  0  0
 33 34  2  0  0  0
 37 76  2  0  0  0
 38 40  2  0  0  0
 39 90  2  0  0  0
 44 45  2  0  0  0
 46 81  2  0  0  0
 47 78  2  0  0  0
 48 53  2  0  0  0
 49 92  2  0  0  0
 50 51  2  0  0  0
 52 93  2  0  0  0
 56 96  2  0  0  0
M  CHG  1  69   1
M  END
> <rmsd>
0.833115995

$$$$
CHEMBL2016845


 50 54  0  0  0  0  0  0  0  0999 V2000
   -8.2544    0.3793  -20.3140 O   0  0  0  0  0
   -9.2404   -0.3714  -18.2104 O   0  0  0  0  0
   -0.0659    1.5343  -16.6695 O   0  0  0  0  0
    0.7349    1.9133  -19.2766 O   0  0  0  0  0
   -7.2412   -0.3152  -16.1258 O   0  0  0  0  0
   -5.9626    3.4250  -14.0428 O   0  0  0  0  0
   -7.6126   -3.0966  -17.5910 O   0  0  0  0  0
   -8.1389   -4.7714  -21.8452 O   0  0  0  0  0
   -7.2201   -7.9445  -22.5255 O   0  0  0  0  0
   -3.9919   -8.0872  -20.0435 O   0  0  0  0  0
   -4.4408   -7.4532  -17.5182 O   0  0  0  0  0
   -2.3481   -7.9459  -16.7348 O   0  0  0  0  0
   -8.0715   -0.5399  -19.1396 S   0  0  0  0  0
   -3.5540   -9.3972  -25.7458 S   0  0  0  0  0
   -6.5949   -0.1345  -18.3295 N   0  0  0  0  0
   -5.4696    0.1814  -18.9499 N   0  0  0  0  0
   -2.7909    1.0024  -19.5751 N   0  0  0  0  0
   -5.1005    0.2665  -16.7434 N   0  0  0  0  0
   -5.9721    2.1425  -14.2456 N   0  0  0  0  0
   -8.0034   -2.1753  -19.7014 N   0  0  0  0  0
   -7.7340   -4.6025  -19.3560 N   0  0  0  0  0
   -6.3736   -7.0739  -20.5442 N   0  0  0  0  0
   -3.8849   -8.3624  -21.3908 N   0  0  0  0  0
   -5.5434   -8.3537  -24.6291 N   0  0  0  0  0
   -5.8498   -8.6234  -27.0316 N   0  0  0  0  0
   -4.5598    0.4294  -17.9787 C   0  0  0  0  0
   -3.1667    0.8219  -18.2776 C   0  0  0  0  0
   -2.2214    1.0022  -17.2600 C   0  0  0  0  0
   -0.9150    1.3689  -17.5847 C   0  0  0  0  0
   -0.5595    1.5496  -18.9253 C   0  0  0  0  0
   -1.5233    1.3584  -19.9164 C   0  0  0  0  0
   -6.3712   -0.0804  -17.0072 C   0  0  0  0  0
   -4.5087    0.4960  -15.4301 C   0  0  0  0  0
   -4.8550    1.8619  -14.9419 C   0  0  0  0  0
   -4.9007    3.9723  -14.5817 C   0  0  0  0  0
   -4.1258    3.0096  -15.1985 C   0  0  0  0  0
   -4.5929    5.4259  -14.5322 C   0  0  0  0  0
   -7.7748   -3.2806  -18.8263 C   0  0  0  0  0
   -7.5063   -5.9260  -18.8206 C   0  0  0  0  0
   -7.6592   -6.5600  -20.0959 C   0  0  0  0  0
   -7.8999   -5.2091  -20.6895 C   0  0  0  0  0
   -6.2120   -7.7579  -21.7907 C   0  0  0  0  0
   -4.8722   -8.2366  -22.2304 C   0  0  0  0  0
   -2.8799   -8.2398  -19.1652 C   0  0  0  0  0
   -3.2736   -7.8571  -17.7683 C   0  0  0  0  0
   -2.4173   -9.6879  -19.1745 C   0  0  0  0  0
   -1.7382   -7.3463  -19.6228 C   0  0  0  0  0
   -4.6259   -8.5897  -23.6492 C   0  0  0  0  0
   -5.0931   -8.7487  -25.8341 C   0  0  0  0  0
   -3.4277   -9.1741  -24.0796 C   0  0  0  0  0
 13 15  1  0  0  0
 13 20  1  0  0  0
 15 16  1  0  0  0
 17 27  1  0  0  0
 18 32  1  0  0  0
 19  6  1  0  0  0
 22 42  1  0  0  0
 23 10  1  0  0  0
 26 27  1  0  0  0
 26 18  1  0  0  0
 28 29  1  0  0  0
 29 30  1  0  0  0
 30  4  1  0  0  0
 31 17  1  0  0  0
 32 15  1  0  0  0
 33 18  1  0  0  0
 33 34  1  0  0  0
 35  6  1  0  0  0
 36 34  1  0  0  0
 37 35  1  0  0  0
 38 20  1  0  0  0
 38 21  1  0  0  0
 39 21  1  0  0  0
 39 40  1  0  0  0
 40 41  1  0  0  0
 40 22  1  0  0  0
 41 21  1  0  0  0
 42 43  1  0  0  0
 43 48  1  0  0  0
 44 10  1  0  0  0
 44 45  1  0  0  0
 44 46  1  0  0  0
 44 47  1  0  0  0
 45 12  1  0  0  0
 48 24  1  0  0  0
 49 14  1  0  0  0
 49 25  1  0  0  0
 50 14  1  0  0  0
 13  1  2  0  0  0
 13  2  2  0  0  0
 26 16  2  0  0  0
 27 28  2  0  0  0
 29  3  2  0  0  0
 30 31  2  0  0  0
 32  5  2  0  0  0
 34 19  2  0  0  0
 35 36  2  0  0  0
 38  7  2  0  0  0
 41  8  2  0  0  0
 42  9  2  0  0  0
 43 23  2  0  0  0
 45 11  2  0  0  0
 49 24  2  0  0  0
 50 48  2  0  0  0
M  CHG  2  20  -1  12  -1
M  END
> <rmsd>
0.619216204

$$$$
CHEMBL3897848


 49 54  0  0  0  0  0  0  0  0999 V2000
   -3.8328    0.9437  -17.6681 N   0  0  0  0  0
   -2.1706    2.3972  -17.1765 N   0  0  0  0  0
   -2.2549    2.9267  -20.7904 N   0  0  0  0  0
   -3.8551    1.3261  -20.0578 N   0  0  0  0  0
   -0.7590    4.0417  -19.2418 N   0  0  0  0  0
   -5.3587  -11.4088  -23.8132 N   0  0  0  0  0
   -7.3940  -12.4029  -23.8887 N   0  0  0  0  0
   -4.4572  -12.4489  -25.8022 N   0  0  0  0  0
   -5.9699  -13.9337  -26.8847 N   0  0  0  0  0
   -8.2041  -14.3326  -26.0295 N   0  0  0  0  0
   -3.4026    1.5219  -18.7950 C   0  0  0  0  0
   -2.4097    2.3869  -18.5007 C   0  0  0  0  0
   -3.0698    1.4943  -16.6910 C   0  0  0  0  0
   -1.8066    3.1171  -19.5139 C   0  0  0  0  0
   -3.2673    2.0417  -21.0642 C   0  0  0  0  0
   -4.8901   -0.0429  -17.4934 C   0  0  0  0  0
   -6.2433    0.5704  -17.7934 C   0  0  0  0  0
   -6.8902   -0.4241  -18.7267 C   0  0  0  0  0
   -5.9458   -1.6021  -18.7070 C   0  0  0  0  0
   -5.8787   -2.2445  -20.0803 C   0  0  0  0  0
   -4.3707   -7.9325  -21.0632 C   0  0  0  0  0
   -3.6963   -8.9218  -21.9938 C   0  0  0  0  0
   -3.5897   -8.3187  -23.3755 C   0  0  0  0  0
   -3.9818   -9.4480  -24.2984 C   0  0  0  0  0
   -4.2204  -10.6115  -23.3608 C   0  0  0  0  0
   -6.5736  -11.5467  -23.2167 C   0  0  0  0  0
   -6.6378  -12.7993  -24.9285 C   0  0  0  0  0
   -5.4244  -12.2085  -24.8832 C   0  0  0  0  0
   -4.7417  -13.3231  -26.8148 C   0  0  0  0  0
   -6.9367  -13.6880  -25.9515 C   0  0  0  0  0
   -7.0259   -3.0082  -20.3081 O   0  0  0  0  0
   -7.6342   -5.3609  -21.2955 O   0  0  0  0  0
   -5.2120   -5.1351  -20.2305 O   0  0  0  0  0
   -6.6341   -4.7765  -18.0342 O   0  0  0  0  0
   -4.6239   -6.4146  -17.8138 O   0  0  0  0  0
   -2.6952   -8.1487  -17.8327 O   0  0  0  0  0
   -4.4034   -8.4397  -19.7620 O   0  0  0  0  0
   -4.4544  -10.1006  -22.0736 O   0  0  0  0  0
   -2.9666   -9.7680  -25.2036 O   0  0  0  0  0
   -2.2795   -7.8855  -23.5961 O   0  0  0  0  0
   -6.9161   -7.0930  -19.2041 O   0  0  0  0  0
   -4.6723   -1.1397  -18.3451 O   0  0  0  0  0
   -8.1583   -0.8168  -18.2898 O   0  0  0  0  0
   -6.9585    0.7117  -16.6010 O   0  0  0  0  0
   -6.4790   -4.4026  -21.1044 P   0  0  0  0  0
   -5.8674   -5.8217  -18.8144 P   0  0  0  0  0
   -3.5583   -7.3382  -18.7716 P   0  0  0  0  0
   -2.2545   -6.0469  -19.8449 S   0  0  0  0  0
   -5.7454   -3.8731  -23.0164 S   0  0  0  0  0
  1 11  1  0  0  0
  6 26  1  0  0  0
 11  4  1  0  0  0
 12  2  1  0  0  0
 12 14  1  0  0  0
 13  1  1  0  0  0
 14  5  1  0  0  0
 15  3  1  0  0  0
 16  1  1  0  0  0
 16 17  1  0  0  0
 16 42  1  0  0  0
 17 18  1  0  0  0
 17 44  1  0  0  0
 18 19  1  0  0  0
 18 43  1  0  0  0
 19 20  1  0  0  0
 19 42  1  0  0  0
 20 31  1  0  0  0
 21 37  1  0  0  0
 22 21  1  0  0  0
 22 23  1  0  0  0
 22 38  1  0  0  0
 23 24  1  0  0  0
 23 40  1  0  0  0
 24 25  1  0  0  0
 24 39  1  0  0  0
 25 38  1  0  0  0
 25  6  1  0  0  0
 27  7  1  0  0  0
 28  8  1  0  0  0
 28  6  1  0  0  0
 29  9  1  0  0  0
 30 10  1  0  0  0
 30 27  1  0  0  0
 45 31  1  0  0  0
 45 33  1  0  0  0
 45 49  1  0  0  0
 46 33  1  0  0  0
 46 35  1  0  0  0
 46 41  1  0  0  0
 47 35  1  0  0  0
 47 37  1  0  0  0
 47 48  1  0  0  0
 11 12  2  0  0  0
 13  2  2  0  0  0
 14  3  2  0  0  0
 15  4  2  0  0  0
 26  7  2  0  0  0
 27 28  2  0  0  0
 29  8  2  0  0  0
 30  9  2  0  0  0
 45 32  2  0  0  0
 46 34  2  0  0  0
 47 36  2  0  0  0
M  END
> <rmsd>
0.7442559

$$$$
CHEMBL3350526 PubChem-118718983


 43 45  0  0  0  0  0  0  0  0999 V2000
   -3.9780    0.5477  -18.2748 N   0  0  0  0  0
   -2.7205    2.4242  -18.0889 N   0  0  0  0  0
   -0.3040    0.3730  -19.9132 N   0  0  0  0  0
   -2.3343   -0.7758  -19.4580 N   0  0  0  0  0
    0.0956    2.6603  -19.2394 N   0  0  0  0  0
    3.4683    8.9139  -17.9015 N   0  0  0  0  0
   -5.0322   -0.4380  -18.0225 C   0  0  0  0  0
   -6.3911    0.2276  -17.8870 C   0  0  0  0  0
   -7.3132   -0.6637  -18.6864 C   0  0  0  0  0
   -6.4272   -1.8122  -19.0980 C   0  0  0  0  0
   -6.7978   -2.2819  -20.4947 C   0  0  0  0  0
   -2.7896    0.3539  -18.8633 C   0  0  0  0  0
   -2.0440    1.4783  -18.7663 C   0  0  0  0  0
   -3.9005    1.8145  -17.7874 C   0  0  0  0  0
   -0.7554    1.5102  -19.3050 C   0  0  0  0  0
   -1.0762   -0.7576  -19.9902 C   0  0  0  0  0
   -0.2707    3.9149  -18.5993 C   0  0  0  0  0
    0.8808    4.9034  -18.6910 C   0  0  0  0  0
    2.0534    4.4702  -17.8189 C   0  0  0  0  0
    1.7373    4.6323  -16.3361 C   0  0  0  0  0
    1.6995    6.0985  -15.9328 C   0  0  0  0  0
    3.1039    6.6798  -15.9120 C   0  0  0  0  0
    3.0585    8.1707  -15.6145 C   0  0  0  0  0
    2.5167    8.9524  -16.8019 C   0  0  0  0  0
    3.1999    9.5448  -19.1531 C   0  0  0  0  0
    4.2071    9.4726  -20.2431 C   0  0  0  0  0
   -5.0969   -1.3693  -19.0736 O   0  0  0  0  0
   -5.9836   -3.3557  -20.8627 O   0  0  0  0  0
   -7.7390   -4.7695  -22.1868 O   0  0  0  0  0
   -6.0549   -6.1440  -20.7422 O   0  0  0  0  0
   -3.9067   -4.9505  -19.8180 O   0  0  0  0  0
   -4.2754   -7.4487  -19.1020 O   0  0  0  0  0
   -2.5875   -8.5539  -17.4413 O   0  0  0  0  0
   -2.4258   -5.9594  -17.6159 O   0  0  0  0  0
   -4.5336   -7.2158  -16.3427 O   0  0  0  0  0
   -5.8214   -5.3656  -18.0715 O   0  0  0  0  0
   -8.1098   -4.6731  -19.6072 O   0  0  0  0  0
   -8.3860   -1.1383  -17.9264 O   0  0  0  0  0
   -6.7493    0.2792  -16.5371 O   0  0  0  0  0
    2.1160   10.1580  -19.3447 O   0  0  0  0  0
   -6.9878   -4.7272  -20.8759 P   0  0  0  0  0
   -4.9868   -5.9374  -19.4318 P   0  0  0  0  0
   -3.4362   -7.3174  -17.6266 P   0  0  0  0  0
  1 12  1  0  0  0
  6 25  1  0  0  0
  7  1  1  0  0  0
  7  8  1  0  0  0
  7 27  1  0  0  0
  8  9  1  0  0  0
  8 39  1  0  0  0
  9 10  1  0  0  0
  9 38  1  0  0  0
 10 27  1  0  0  0
 10 11  1  0  0  0
 11 28  1  0  0  0
 12  4  1  0  0  0
 13  2  1  0  0  0
 13 15  1  0  0  0
 14  1  1  0  0  0
 15  5  1  0  0  0
 16  3  1  0  0  0
 17  5  1  0  0  0
 17 18  1  0  0  0
 18 19  1  0  0  0
 19 20  1  0  0  0
 20 21  1  0  0  0
 21 22  1  0  0  0
 22 23  1  0  0  0
 23 24  1  0  0  0
 24  6  1  0  0  0
 26 25  1  0  0  0
 41 28  1  0  0  0
 41 30  1  0  0  0
 41 37  1  0  0  0
 42 30  1  0  0  0
 42 32  1  0  0  0
 42 36  1  0  0  0
 43 32  1  0  0  0
 43 34  1  0  0  0
 43 35  1  0  0  0
 12 13  2  0  0  0
 14  2  2  0  0  0
 15  3  2  0  0  0
 16  4  2  0  0  0
 25 40  2  0  0  0
 41 29  2  0  0  0
 42 31  2  0  0  0
 43 33  2  0  0  0
M  END
> <rmsd>
0.773637533

$$$$
CHEMBL4757883 PubChem-162656606


 90100  0  0  0  0  0  0  0  0999 V2000
    0.4170   -8.8523  -25.9682 C   0  0  0  0  0
    0.0501   -8.9369  -24.6201 C   0  0  0  0  0
   -0.8079  -10.0737  -24.2263 C   0  0  0  0  0
   -2.4109  -11.2314  -23.1514 C   0  0  0  0  0
   -2.0034  -12.2369  -24.0345 C   0  0  0  0  0
   -3.4604  -11.4706  -22.1498 C   0  0  0  0  0
   -4.6881  -10.7576  -20.0893 C   0  0  0  0  0
   -5.7678   -9.7423  -19.8632 C   0  0  0  0  0
   -8.3156   -9.4476  -19.6361 C   0  0  0  0  0
   -9.4236  -10.1274  -19.3342 C   0  0  0  0  0
   -9.4910  -11.6168  -19.3462 C   0  0  0  0  0
   -8.3728   -7.9726  -19.5980 C   0  0  0  0  0
   -7.9374   -5.8532  -20.2017 C   0  0  0  0  0
   -8.8850   -5.5752  -19.2183 C   0  0  0  0  0
   -7.2908   -4.8007  -20.9969 C   0  0  0  0  0
   -6.4111   -3.4192  -18.9874 C   0  0  0  0  0
   -5.6846   -4.5766  -18.3659 C   0  0  0  0  0
   -4.7645   -6.4046  -16.9585 C   0  0  0  0  0
   -3.9201   -5.9047  -17.9488 C   0  0  0  0  0
   -2.5276   -6.3319  -18.1134 C   0  0  0  0  0
   -0.3109   -5.8828  -19.2736 C   0  0  0  0  0
   -0.0166   -6.9645  -20.2715 C   0  0  0  0  0
    0.2844   -7.9402  -22.2737 C   0  0  0  0  0
    0.5225   -7.9347  -23.7313 C   0  0  0  0  0
    1.6442   -6.8254  -25.5365 C   0  0  0  0  0
    1.2080   -7.8128  -26.4360 C   0  0  0  0  0
    2.5387   -5.7237  -25.9383 C   0  0  0  0  0
    3.8814   -3.9465  -27.0318 C   0  0  0  0  0
    4.0763   -4.1065  -25.6591 C   0  0  0  0  0
    5.0439   -3.3134  -24.8951 C   0  0  0  0  0
    6.2169   -2.8998  -22.6934 C   0  0  0  0  0
    5.6295   -2.4673  -21.3926 C   0  0  0  0  0
    7.3939   -3.8406  -22.4540 C   0  0  0  0  0
    8.8657   -3.2714  -24.4598 C   0  0  0  0  0
    9.1315   -1.9831  -23.9738 C   0  0  0  0  0
    9.9354   -1.1047  -24.7001 C   0  0  0  0  0
   10.4701   -1.5061  -25.9267 C   0  0  0  0  0
   10.2026   -2.7870  -26.4233 C   0  0  0  0  0
    9.4091   -3.6736  -25.6899 C   0  0  0  0  0
    0.3164   -9.0907  -21.4874 C   0  0  0  0  0
    0.3449   -4.5448  -19.6303 C   0  0  0  0  0
    0.0631   -2.0454  -20.5128 C   0  0  0  0  0
   -0.7574   -1.0804  -19.7477 C   0  0  0  0  0
   -1.8137   -1.3675  -18.8761 C   0  0  0  0  0
   -2.2623   -0.1433  -18.4141 C   0  0  0  0  0
   -1.4669    0.8060  -19.0102 C   0  0  0  0  0
   -1.6245    2.1643  -18.7483 C   0  0  0  0  0
   -2.6403    2.5508  -17.8548 C   0  0  0  0  0
   -3.4619    1.5823  -17.2419 C   0  0  0  0  0
   -3.2800    0.2137  -17.5109 C   0  0  0  0  0
   -4.1437   -0.7905  -16.8302 C   0  0  0  0  0
   -6.5345   -0.7535  -17.4503 C   0  0  0  0  0
   -7.6676   -1.3843  -18.2232 C   0  0  0  0  0
   -7.5956   -2.9063  -18.1824 C   0  0  0  0  0
   -2.3089   -2.7071  -18.4529 C   0  0  0  0  0
   -3.8339  -11.0714  -18.8592 C   0  0  0  0  0
   -2.9848   -9.8895  -18.4268 C   0  0  0  0  0
   -1.7551  -10.0391  -23.2604 N   0  0  0  0  0
   -3.8617  -10.4371  -21.2469 N   0  0  0  0  0
   -7.1245  -10.1653  -20.0070 N   0  0  0  0  0
   -7.6739   -7.1703  -20.4239 N   0  0  0  0  0
   -6.7227   -3.6271  -20.4018 N   0  0  0  0  0
   -1.7440   -5.7088  -19.1311 N   0  0  0  0  0
    0.1053   -6.7714  -21.5988 N   0  0  0  0  0
    1.2936   -6.9252  -24.2255 N   0  0  0  0  0
    3.3359   -5.0793  -25.0618 N   0  0  0  0  0
    5.1991   -3.5603  -23.4985 N   0  0  0  0  0
    5.5788   -1.0817  -21.0759 N   0  0  0  0  0
    8.0547   -4.1801  -23.7089 N   0  0  0  0  0
   -0.5415    0.2553  -19.8211 N   0  0  0  0  0
   -4.4312   -4.9060  -18.7181 N   0  0  0  0  0
   -0.7860  -11.5731  -24.9795 S   0  0  0  0  0
   -9.3797   -7.0625  -18.6067 S   0  0  0  0  0
   -6.1951   -5.5196  -17.0733 S   0  0  0  0  0
    2.7262   -5.0856  -27.4777 S   0  0  0  0  0
    0.0774   -8.5916  -19.8954 S   0  0  0  0  0
   -0.5460   -3.6683  -20.9729 S   0  0  0  0  0
   -4.0090  -12.6080  -22.0847 O   0  0  0  0  0
   -5.4802   -8.5642  -19.5202 O   0  0  0  0  0
   -7.2166   -4.9439  -22.2462 O   0  0  0  0  0
   -2.0153   -7.1798  -17.3345 O   0  0  0  0  0
    1.5687   -7.7987  -27.7775 O   0  0  0  0  0
    5.7514   -2.4415  -25.4669 O   0  0  0  0  0
    5.1830   -3.3158  -20.5783 O   0  0  0  0  0
    1.1924   -1.6853  -20.9444 O   0  0  0  0  0
   -5.2193   -1.1801  -17.6696 O   0  0  0  0  0
   -6.7683    0.1771  -16.6317 O   0  0  0  0  0
   -8.8865   -0.9886  -17.6816 O   0  0  0  0  0
   -4.6385  -11.4942  -17.7985 O   0  0  0  0  0
    9.0744   -5.4118  -26.4073 Br  0  0  0  0  0
  2  3  1  0  0  0
  3 72  1  0  0  0
  4 58  1  0  0  0
  4  6  1  0  0  0
  5 72  1  0  0  0
  6 59  1  0  0  0
  7 59  1  0  0  0
  7  8  1  0  0  0
  7 56  1  0  0  0
  8 60  1  0  0  0
  9 12  1  0  0  0
 11 10  1  0  0  0
 12 73  1  0  0  0
 13 61  1  0  0  0
 13 15  1  0  0  0
 14 73  1  0  0  0
 15 62  1  0  0  0
 16 62  1  0  0  0
 16 17  1  0  0  0
 16 54  1  0  0  0
 17 74  1  0  0  0
 18 74  1  0  0  0
 19 20  1  0  0  0
 19 71  1  0  0  0
 20 63  1  0  0  0
 21 63  1  0  0  0
 21 22  1  0  0  0
 21 41  1  0  0  0
 22 76  1  0  0  0
 23 64  1  0  0  0
 23 24  1  0  0  0
 24  2  1  0  0  0
 25 65  1  0  0  0
 25 27  1  0  0  0
 26 82  1  0  0  0
 26  1  1  0  0  0
 27 75  1  0  0  0
 28 75  1  0  0  0
 29 66  1  0  0  0
 29 30  1  0  0  0
 30 67  1  0  0  0
 31 67  1  0  0  0
 31 32  1  0  0  0
 31 33  1  0  0  0
 32 68  1  0  0  0
 33 69  1  0  0  0
 35 36  1  0  0  0
 37 38  1  0  0  0
 39 90  1  0  0  0
 39 34  1  0  0  0
 40 76  1  0  0  0
 41 77  1  0  0  0
 42 77  1  0  0  0
 42 43  1  0  0  0
 44 45  1  0  0  0
 46 70  1  0  0  0
 46 47  1  0  0  0
 48 49  1  0  0  0
 50 45  1  0  0  0
 51 50  1  0  0  0
 51 86  1  0  0  0
 52 86  1  0  0  0
 53 52  1  0  0  0
 53 54  1  0  0  0
 53 88  1  0  0  0
 55 44  1  0  0  0
 56 57  1  0  0  0
 56 89  1  0  0  0
 60  9  1  0  0  0
 69 34  1  0  0  0
 70 43  1  0  0  0
  1  2  2  0  0  0
  3 58  2  0  0  0
  4  5  2  0  0  0
  6 78  2  0  0  0
  8 79  2  0  0  0
  9 10  2  0  0  0
 12 61  2  0  0  0
 13 14  2  0  0  0
 15 80  2  0  0  0
 17 71  2  0  0  0
 18 19  2  0  0  0
 20 81  2  0  0  0
 22 64  2  0  0  0
 23 40  2  0  0  0
 24 65  2  0  0  0
 25 26  2  0  0  0
 27 66  2  0  0  0
 28 29  2  0  0  0
 30 83  2  0  0  0
 32 84  2  0  0  0
 34 35  2  0  0  0
 36 37  2  0  0  0
 38 39  2  0  0  0
 42 85  2  0  0  0
 43 44  2  0  0  0
 45 46  2  0  0  0
 47 48  2  0  0  0
 49 50  2  0  0  0
 52 87  2  0  0  0
M  END
> <rmsd>
0.743249178

$$$$
CHEMBL1207277 PubChem-12573613


 64 68  0  0  0  0  0  0  0  0999 V2000
   -1.6742   -1.1543  -20.8805 S   0  0  0  0  0
   -0.0134    1.2181  -16.2827 S   0  0  0  0  0
   -0.2763   -3.8835  -11.8080 S   0  0  0  0  0
   -4.2903   -0.4168  -13.1451 S   0  0  0  0  0
   -7.7420    0.7757  -17.6823 S   0  0  0  0  0
   -5.8825    3.9175  -13.4488 S   0  0  0  0  0
   -8.1409    7.5235  -16.8614 S   0  0  0  0  0
   -2.9792   -7.6833  -19.4795 S   0  0  0  0  0
   -6.6135   -3.7617  -20.6083 S   0  0  0  0  0
   -2.6993   -0.9352  -21.9590 O   0  0  0  0  0
   -0.3622   -0.6128  -21.3776 O   0  0  0  0  0
    1.1662    1.6371  -17.1165 O   0  0  0  0  0
   -0.4223    2.3765  -15.4154 O   0  0  0  0  0
   -1.3683   -4.4011  -10.9148 O   0  0  0  0  0
    0.1378   -4.9718  -12.7586 O   0  0  0  0  0
    1.0385   -3.4282  -10.8613 O   0  0  0  0  0
   -4.5736    0.6630  -14.1522 O   0  0  0  0  0
   -5.2269   -1.5667  -13.3864 O   0  0  0  0  0
   -4.5269    0.1949  -11.5983 O   0  0  0  0  0
   -7.9058    0.3917  -16.2385 O   0  0  0  0  0
   -8.6814   -0.0618  -18.5041 O   0  0  0  0  0
   -6.0889    5.0580  -12.4833 O   0  0  0  0  0
   -6.4452    2.6546  -12.8403 O   0  0  0  0  0
   -4.2323    3.7236  -13.7480 O   0  0  0  0  0
   -8.8378    7.5781  -18.1949 O   0  0  0  0  0
   -9.0482    8.0901  -15.8067 O   0  0  0  0  0
   -6.7287    8.4326  -16.9406 O   0  0  0  0  0
   -4.2574   -8.4313  -19.2225 O   0  0  0  0  0
   -2.1455   -7.6885  -18.2257 O   0  0  0  0  0
   -2.1389   -8.4426  -20.7235 O   0  0  0  0  0
   -6.6846   -2.5799  -21.5364 O   0  0  0  0  0
   -7.4407   -4.8798  -21.1790 O   0  0  0  0  0
   -7.2149   -3.3318  -19.0999 O   0  0  0  0  0
   -2.1123   -0.3051  -19.3902 C   0  0  0  0  0
   -1.0722    0.0908  -18.5403 C   0  0  0  0  0
   -1.3360    0.7589  -17.3420 C   0  0  0  0  0
   -0.4514   -0.7622  -14.3629 C   0  0  0  0  0
   -0.0002   -1.8552  -13.6182 C   0  0  0  0  0
   -0.8576   -2.5004  -12.7200 C   0  0  0  0  0
   -2.1741   -2.0538  -12.5684 C   0  0  0  0  0
   -2.6341   -0.9643  -13.3137 C   0  0  0  0  0
   -1.7711   -0.3202  -14.2035 C   0  0  0  0  0
   -2.6557    1.0280  -16.9718 C   0  0  0  0  0
   -3.7111    0.6323  -17.7927 C   0  0  0  0  0
   -3.4501   -0.0336  -19.0166 C   0  0  0  0  0
   -4.5341   -0.4114  -19.8211 C   0  0  0  0  0
   -5.8450   -0.1581  -19.4155 C   0  0  0  0  0
   -6.0940    0.4800  -18.1981 C   0  0  0  0  0
   -7.7549    3.4961  -17.0123 C   0  0  0  0  0
   -7.0649    3.2251  -15.8204 C   0  0  0  0  0
   -6.7246    4.2643  -14.9475 C   0  0  0  0  0
   -7.0621    5.5826  -15.2719 C   0  0  0  0  0
   -7.7434    5.8623  -16.4605 C   0  0  0  0  0
   -8.0917    4.8167  -17.3259 C   0  0  0  0  0
   -5.0263    0.8825  -17.3929 C   0  0  0  0  0
   -2.5710   -3.7767  -20.4275 C   0  0  0  0  0
   -2.2943   -5.1064  -20.0958 C   0  0  0  0  0
   -3.3377   -6.0258  -19.9334 C   0  0  0  0  0
   -4.6644   -5.6133  -20.1032 C   0  0  0  0  0
   -4.9487   -4.2878  -20.4413 C   0  0  0  0  0
   -3.9020   -3.3738  -20.5981 C   0  0  0  0  0
    0.4400   -0.1259  -15.2841 N   0  0  0  0  0
   -8.1317    2.4498  -17.9134 N   0  0  0  0  0
   -1.4878   -2.8526  -20.5680 N   0  0  0  0  0
  1 34  1  0  0  0
  1 64  1  0  0  0
  2 36  1  0  0  0
  2 62  1  0  0  0
  3 39  1  0  0  0
  3 16  1  0  0  0
  4 41  1  0  0  0
  4 19  1  0  0  0
  5 48  1  0  0  0
  5 63  1  0  0  0
  6 51  1  0  0  0
  6 24  1  0  0  0
  7 53  1  0  0  0
  7 27  1  0  0  0
  8 58  1  0  0  0
  8 30  1  0  0  0
  9 60  1  0  0  0
  9 33  1  0  0  0
 35 36  1  0  0  0
 38 39  1  0  0  0
 40 41  1  0  0  0
 42 37  1  0  0  0
 43 44  1  0  0  0
 45 46  1  0  0  0
 45 34  1  0  0  0
 47 48  1  0  0  0
 50 51  1  0  0  0
 52 53  1  0  0  0
 54 49  1  0  0  0
 55 44  1  0  0  0
 57 58  1  0  0  0
 59 60  1  0  0  0
 61 56  1  0  0  0
 62 37  1  0  0  0
 63 49  1  0  0  0
 64 56  1  0  0  0
  1 10  2  0  0  0
  1 11  2  0  0  0
  2 12  2  0  0  0
  2 13  2  0  0  0
  3 14  2  0  0  0
  3 15  2  0  0  0
  4 17  2  0  0  0
  4 18  2  0  0  0
  5 20  2  0  0  0
  5 21  2  0  0  0
  6 22  2  0  0  0
  6 23  2  0  0  0
  7 25  2  0  0  0
  7 26  2  0  0  0
  8 28  2  0  0  0
  8 29  2  0  0  0
  9 31  2  0  0  0
  9 32  2  0  0  0
 34 35  2  0  0  0
 36 43  2  0  0  0
 37 38  2  0  0  0
 39 40  2  0  0  0
 41 42  2  0  0  0
 44 45  2  0  0  0
 46 47  2  0  0  0
 48 55  2  0  0  0
 49 50  2  0  0  0
 51 52  2  0  0  0
 53 54  2  0  0  0
 56 57  2  0  0  0
 58 59  2  0  0  0
 60 61  2  0  0  0
M  END
> <rmsd>
0.721311688

$$$$
CHEMBL316236 PubChem-15173615


 44 47  0  0  0  0  0  0  0  0999 V2000
   -4.2942   -9.8475  -18.6655 C   0  0  0  0  0
   -4.4613   -8.4173  -18.1686 C   0  0  0  0  0
   -5.2465   -8.4600  -16.8727 C   0  0  0  0  0
   -5.3642   -6.7754  -21.2998 C   0  0  0  0  0
   -6.6424   -6.0921  -20.9791 C   0  0  0  0  0
   -8.1410   -4.9576  -19.2739 C   0  0  0  0  0
   -7.9902   -3.5025  -19.6113 C   0  0  0  0  0
   -7.1959   -2.1904  -17.4243 C   0  0  0  0  0
   -7.7393   -0.8141  -17.3882 C   0  0  0  0  0
   -6.0946   -2.6003  -16.7653 C   0  0  0  0  0
   -5.2721   -1.7122  -15.8880 C   0  0  0  0  0
   -3.6218    0.1827  -16.1329 C   0  0  0  0  0
   -2.8667    1.0989  -17.0055 C   0  0  0  0  0
   -2.0298    2.0780  -16.4527 C   0  0  0  0  0
   -1.3144    2.9487  -17.2792 C   0  0  0  0  0
   -1.4303    2.8482  -18.6719 C   0  0  0  0  0
   -2.2648    1.8675  -19.2326 C   0  0  0  0  0
   -2.4039    1.7406  -20.6590 C   0  0  0  0  0
   -2.9772    1.0005  -18.3989 C   0  0  0  0  0
   -5.5836   -3.9962  -16.9992 C   0  0  0  0  0
   -8.1589   -4.5695  -17.8814 C   0  0  0  0  0
   -4.7745   -6.6613  -22.6527 C   0  0  0  0  0
   -3.6175   -7.3558  -23.0283 C   0  0  0  0  0
   -4.5890   -5.8933  -24.7471 C   0  0  0  0  0
   -3.1346   -7.7538  -17.9107 C   0  0  0  0  0
   -5.2001   -7.6636  -19.1223 O   0  0  0  0  0
   -7.4820   -5.8652  -21.8928 O   0  0  0  0  0
   -7.9051   -2.8389  -20.6774 O   0  0  0  0  0
   -8.6559   -0.4886  -18.1872 O   0  0  0  0  0
   -7.2850    0.1261  -16.4712 O   0  0  0  0  0
   -3.5078    0.2671  -14.8790 O   0  0  0  0  0
   -0.4898    3.9116  -16.7107 O   0  0  0  0  0
   -0.7189    3.7220  -19.4899 O   0  0  0  0  0
   -2.0524   -8.3889  -18.0299 O   0  0  0  0  0
   -3.0975   -6.4157  -17.5345 O   0  0  0  0  0
   -4.7287   -7.4743  -20.4046 N   0  0  0  0  0
   -6.9224   -5.6719  -19.6405 N   0  0  0  0  0
   -7.8930   -3.1813  -18.1715 N   0  0  0  0  0
   -4.4899   -0.7981  -16.7063 N   0  0  0  0  0
   -2.5144    1.6395  -21.8066 N   0  0  0  0  0
   -4.9145   -5.1363  -25.9072 N   0  0  0  0  0
   -5.3052   -5.8489  -23.6092 N   0  0  0  0  0
   -6.8752   -5.2764  -16.7525 S   0  0  0  0  0
   -3.2775   -6.9225  -24.6211 S   0  0  0  0  0
  1  2  1  0  0  0
  2  3  1  0  0  0
  2 26  1  0  0  0
  2 25  1  0  0  0
  4  5  1  0  0  0
  4 22  1  0  0  0
  5 37  1  0  0  0
  6 37  1  0  0  0
  6  7  1  0  0  0
  7 38  1  0  0  0
  8  9  1  0  0  0
  9 30  1  0  0  0
 11 10  1  0  0  0
 11 39  1  0  0  0
 12 13  1  0  0  0
 14 15  1  0  0  0
 15 32  1  0  0  0
 16 33  1  0  0  0
 16 17  1  0  0  0
 17 18  1  0  0  0
 19 13  1  0  0  0
 20 10  1  0  0  0
 20 43  1  0  0  0
 21 43  1  0  0  0
 21  6  1  0  0  0
 21 38  1  0  0  0
 22 42  1  0  0  0
 23 44  1  0  0  0
 24 44  1  0  0  0
 24 41  1  0  0  0
 25 35  1  0  0  0
 26 36  1  0  0  0
 38  8  1  0  0  0
 39 12  1  0  0  0
  4 36  2  0  0  0
  5 27  2  0  0  0
  7 28  2  0  0  0
  8 10  2  0  0  0
  9 29  2  0  0  0
 12 31  2  0  0  0
 13 14  2  0  0  0
 15 16  2  0  0  0
 17 19  2  0  0  0
 22 23  2  0  0  0
 24 42  2  0  0  0
 25 34  2  0  0  0
 18 40  3  0  0  0
M  END
> <rmsd>
0.672632515

$$$$
CHEMBL502712 PubChem-10234467


 51 54  0  0  0  0  0  0  0  0999 V2000
   -1.2542    3.1399  -18.1917 O   0  0  0  0  0
   -5.7663   -0.8456  -19.3920 O   0  0  0  0  0
   -7.0457   -3.1951  -20.5760 O   0  0  0  0  0
   -7.3006   -5.5385  -21.7165 O   0  0  0  0  0
   -8.4180   -5.2985  -19.3837 O   0  0  0  0  0
   -5.6795   -5.4547  -19.6411 O   0  0  0  0  0
   -4.5914   -4.9304  -22.0260 O   0  0  0  0  0
   -4.0101   -3.2775  -20.0824 O   0  0  0  0  0
   -2.0359   -8.5112  -20.3526 O   0  0  0  0  0
   -3.7962   -7.7675  -22.1075 O   0  0  0  0  0
   -4.5528   -8.2112  -19.5016 O   0  0  0  0  0
   -4.8431   -8.3947  -16.9123 O   0  0  0  0  0
   -2.3699   -8.2152  -17.6786 O   0  0  0  0  0
   -3.8313  -10.5209  -18.0323 O   0  0  0  0  0
   -2.4905  -12.5798  -19.4049 O   0  0  0  0  0
   -2.1176  -18.6357  -18.9127 O   0  0  0  0  0
    0.3015  -15.0149  -20.1595 O   0  0  0  0  0
   -1.6523  -12.8026  -22.6970 O   0  0  0  0  0
   -3.4056  -10.9432  -22.3749 O   0  0  0  0  0
   -8.7519    0.3494  -18.4272 O   0  0  0  0  0
   -6.5925   -0.1257  -16.0623 O   0  0  0  0  0
   -5.3659    1.9348  -19.6491 O   0  0  0  0  0
   -2.2098    2.3218  -18.1752 C   0  0  0  0  0
   -2.1406    1.1850  -17.3769 C   0  0  0  0  0
   -3.2191    0.3042  -17.3855 C   0  0  0  0  0
   -5.4067   -0.4136  -18.1026 C   0  0  0  0  0
   -7.1426   -1.1538  -19.3345 C   0  0  0  0  0
   -7.3405   -2.6603  -19.3204 C   0  0  0  0  0
   -2.9091   -5.9113  -20.1317 C   0  0  0  0  0
   -4.2515  -10.9513  -19.2933 C   0  0  0  0  0
   -3.0682  -11.4922  -20.0782 C   0  0  0  0  0
   -1.9038  -13.3787  -20.4048 C   0  0  0  0  0
   -3.1786  -15.3605  -19.7542 C   0  0  0  0  0
   -3.2598  -16.6949  -19.3650 C   0  0  0  0  0
   -2.0805  -17.4286  -19.2652 C   0  0  0  0  0
   -0.8236  -15.5325  -19.9187 C   0  0  0  0  0
   -2.6072  -13.1309  -21.7291 C   0  0  0  0  0
   -3.5266  -11.9691  -21.4333 C   0  0  0  0  0
   -7.7496   -0.5561  -18.0809 C   0  0  0  0  0
   -6.6210    0.1713  -17.4250 C   0  0  0  0  0
   -4.3580    1.6824  -18.9349 C   0  0  0  0  0
   -4.3096    0.5521  -18.1612 N   0  0  0  0  0
   -1.9694  -14.7922  -20.0278 N   0  0  0  0  0
   -0.8905  -16.8388  -19.5455 N   0  0  0  0  0
   -3.3131    2.5509  -18.9336 N   0  0  0  0  0
   -7.1061   -4.8777  -20.3707 P   0  0  0  0  0
   -4.3472   -4.8729  -20.5331 P   0  0  0  0  0
   -3.2805   -7.6613  -20.4993 P   0  0  0  0  0
   -3.9159   -8.8193  -18.0312 P   0  0  0  0  0
   -1.8240   -5.5008  -20.8865 F   0  0  0  0  0
   -2.6125   -5.7672  -18.7882 F   0  0  0  0  0
 23 24  1  0  0  0
 25 42  1  0  0  0
 26 42  1  0  0  0
 26  2  1  0  0  0
 27  2  1  0  0  0
 27 28  1  0  0  0
 27 39  1  0  0  0
 28  3  1  0  0  0
 29 50  1  0  0  0
 29 51  1  0  0  0
 30 14  1  0  0  0
 31 30  1  0  0  0
 31 15  1  0  0  0
 32 15  1  0  0  0
 32 43  1  0  0  0
 32 37  1  0  0  0
 34 35  1  0  0  0
 35 44  1  0  0  0
 36 43  1  0  0  0
 37 18  1  0  0  0
 37 38  1  0  0  0
 38 19  1  0  0  0
 38 31  1  0  0  0
 39 20  1  0  0  0
 39 40  1  0  0  0
 40 21  1  0  0  0
 40 26  1  0  0  0
 41 45  1  0  0  0
 42 41  1  0  0  0
 43 33  1  0  0  0
 44 36  1  0  0  0
 45 23  1  0  0  0
 46  3  1  0  0  0
 46  5  1  0  0  0
 46  6  1  0  0  0
 47  6  1  0  0  0
 47  8  1  0  0  0
 47 29  1  0  0  0
 48 29  1  0  0  0
 48 10  1  0  0  0
 48 11  1  0  0  0
 49 11  1  0  0  0
 49 13  1  0  0  0
 49 14  1  0  0  0
 23  1  2  0  0  0
 24 25  2  0  0  0
 33 34  2  0  0  0
 35 16  2  0  0  0
 36 17  2  0  0  0
 41 22  2  0  0  0
 46  4  2  0  0  0
 47  7  2  0  0  0
 48  9  2  0  0  0
 49 12  2  0  0  0
M  END
> <rmsd>
0.670332313

$$$$
CHEMBL401150 PubChem-448108


 50 54  0  0  0  0  0  0  0  0999 V2000
   -1.8722  -14.4390  -21.5705 N   0  0  0  0  0
   -2.1067  -12.3620  -22.7973 N   0  0  0  0  0
   -2.7657  -10.3402  -21.7299 N   0  0  0  0  0
   -2.6921  -12.7814  -19.2151 N   0  0  0  0  0
   -3.1679  -10.5734  -19.3534 N   0  0  0  0  0
   -3.6193    0.5196  -19.3694 N   0  0  0  0  0
   -1.6292    1.5644  -18.6412 N   0  0  0  0  0
   -2.1817  -13.0507  -21.6207 C   0  0  0  0  0
   -2.3930  -11.0209  -22.8553 C   0  0  0  0  0
   -2.8408  -11.0332  -20.5675 C   0  0  0  0  0
   -2.5556  -12.3499  -20.4829 C   0  0  0  0  0
   -3.0677  -11.6563  -18.5418 C   0  0  0  0  0
   -3.5273   -9.2194  -18.9495 C   0  0  0  0  0
   -4.2240   -7.4840  -20.2295 C   0  0  0  0  0
   -4.7544   -7.3174  -21.6444 C   0  0  0  0  0
   -5.8341   -1.7324  -20.1806 C   0  0  0  0  0
   -4.6101   -1.1833  -20.8334 C   0  0  0  0  0
   -4.6121    0.2707  -20.4178 C   0  0  0  0  0
   -3.7619   -0.0658  -18.1452 C   0  0  0  0  0
   -2.8246    0.1562  -17.1405 C   0  0  0  0  0
   -1.7445    0.9883  -17.4183 C   0  0  0  0  0
   -2.5520    1.3399  -19.6133 C   0  0  0  0  0
   -6.6955   -0.5144  -19.9444 C   0  0  0  0  0
   -7.3722   -0.6358  -18.5897 C   0  0  0  0  0
   -2.7175   -7.3839  -20.2056 C   0  0  0  0  0
   -2.3332   -8.2941  -19.0699 C   0  0  0  0  0
   -4.5968   -8.7457  -19.7373 O   0  0  0  0  0
   -4.5534   -6.0082  -22.0886 O   0  0  0  0  0
   -5.9226   -4.1411  -23.3161 O   0  0  0  0  0
   -6.7312   -6.5823  -23.6954 O   0  0  0  0  0
   -7.1404   -5.3140  -21.2800 O   0  0  0  0  0
   -5.1292   -4.4941  -19.7712 O   0  0  0  0  0
   -7.5347   -3.9883  -18.9010 O   0  0  0  0  0
   -6.4767   -2.6170  -21.0506 O   0  0  0  0  0
   -0.8748    1.2054  -16.5380 O   0  0  0  0  0
   -2.4085    1.8913  -20.7377 O   0  0  0  0  0
   -5.8972    0.6470  -19.9762 O   0  0  0  0  0
   -8.3129    0.3862  -18.4308 O   0  0  0  0  0
   -7.8871    0.1953  -15.8348 O   0  0  0  0  0
   -9.0161    2.3958  -16.6748 O   0  0  0  0  0
   -6.3521    1.8675  -17.1411 O   0  0  0  0  0
   -2.3139   -6.0614  -19.9781 O   0  0  0  0  0
   -1.6088   -5.7042  -22.4868 O   0  0  0  0  0
    0.1115   -6.9841  -20.9862 O   0  0  0  0  0
   -0.3361   -4.2801  -20.7062 O   0  0  0  0  0
   -2.1946   -7.5814  -17.8751 O   0  0  0  0  0
   -6.0770   -5.4668  -22.6032 P   0  0  0  0  0
   -6.5160   -4.1129  -20.2459 P   0  0  0  0  0
   -7.8883    1.1741  -16.9888 P   0  0  0  0  0
   -1.0567   -5.7631  -21.0803 P   0  0  0  0  0
  1  8  1  0  0  0
  5 10  1  0  0  0
  6 19  1  0  0  0
  7 22  1  0  0  0
  9  2  1  0  0  0
 10  3  1  0  0  0
 11  4  1  0  0  0
 11  8  1  0  0  0
 12  5  1  0  0  0
 13  5  1  0  0  0
 13 27  1  0  0  0
 14 27  1  0  0  0
 14 15  1  0  0  0
 14 25  1  0  0  0
 15 28  1  0  0  0
 16 34  1  0  0  0
 16 17  1  0  0  0
 17 18  1  0  0  0
 18  6  1  0  0  0
 18 37  1  0  0  0
 20 21  1  0  0  0
 21  7  1  0  0  0
 22  6  1  0  0  0
 23 37  1  0  0  0
 23 24  1  0  0  0
 23 16  1  0  0  0
 24 38  1  0  0  0
 25 42  1  0  0  0
 25 26  1  0  0  0
 26 46  1  0  0  0
 26 13  1  0  0  0
 47 28  1  0  0  0
 47 30  1  0  0  0
 47 31  1  0  0  0
 48 31  1  0  0  0
 48 33  1  0  0  0
 48 34  1  0  0  0
 49 38  1  0  0  0
 49 40  1  0  0  0
 49 41  1  0  0  0
 50 42  1  0  0  0
 50 44  1  0  0  0
 50 45  1  0  0  0
  8  2  2  0  0  0
  9  3  2  0  0  0
 10 11  2  0  0  0
 12  4  2  0  0  0
 19 20  2  0  0  0
 21 35  2  0  0  0
 22 36  2  0  0  0
 47 29  2  0  0  0
 48 32  2  0  0  0
 49 39  2  0  0  0
 50 43  2  0  0  0
M  END
> <rmsd>
0.761627316

$$$$
CHEMBL1163477 PubChem-10930952


 62 66  0  0  0  0  0  0  0  0999 V2000
    0.2995   -3.8774  -15.0649 C   0  0  0  0  0
   -1.0591   -4.1490  -14.5255 C   0  0  0  0  0
   -3.4476   -4.9519  -14.9936 C   0  0  0  0  0
   -3.4551   -6.1161  -14.0109 C   0  0  0  0  0
   -5.0472   -7.9566  -16.6559 C   0  0  0  0  0
   -4.0084   -7.0656  -17.3354 C   0  0  0  0  0
   -2.7806   -7.8210  -17.7485 C   0  0  0  0  0
   -5.2475   -6.9184  -19.5863 C   0  0  0  0  0
   -5.5352   -6.0991  -20.7992 C   0  0  0  0  0
   -4.2377   -5.8381  -21.5479 C   0  0  0  0  0
   -4.3399   -6.3119  -22.9588 C   0  0  0  0  0
   -4.4654   -7.6791  -23.2440 C   0  0  0  0  0
   -4.5164   -8.1133  -24.5711 C   0  0  0  0  0
   -4.4369   -7.1846  -25.6148 C   0  0  0  0  0
   -4.3076   -5.8203  -25.3312 C   0  0  0  0  0
   -4.2569   -5.3852  -24.0041 C   0  0  0  0  0
   -7.3438   -4.3565  -21.0371 C   0  0  0  0  0
   -7.8726   -2.9845  -20.7277 C   0  0  0  0  0
   -8.1641   -2.2493  -22.0328 C   0  0  0  0  0
   -9.1183   -1.0904  -21.8069 C   0  0  0  0  0
   -9.1606   -0.1847  -23.0271 C   0  0  0  0  0
   -7.9860    0.7827  -23.0339 C   0  0  0  0  0
   -7.2504   -1.1062  -19.1356 C   0  0  0  0  0
   -6.1908   -0.2186  -18.5661 C   0  0  0  0  0
   -5.1723    0.1671  -19.6283 C   0  0  0  0  0
   -4.4166    1.3790  -19.1891 C   0  0  0  0  0
   -4.8673    2.6958  -19.2282 C   0  0  0  0  0
   -2.8914    2.7348  -18.3828 C   0  0  0  0  0
   -1.6860    3.1345  -17.8087 C   0  0  0  0  0
   -0.7410    2.1345  -17.5070 C   0  0  0  0  0
   -1.0192    0.7757  -17.7796 C   0  0  0  0  0
   -2.2450    0.4002  -18.3593 C   0  0  0  0  0
   -3.1553    1.4173  -18.6493 C   0  0  0  0  0
   -6.0645   -0.9491  -16.1460 C   0  0  0  0  0
   -5.2669   -1.5298  -15.0277 C   0  0  0  0  0
   -4.1466   -0.5801  -14.6082 C   0  0  0  0  0
   -4.6719    0.5933  -13.8479 C   0  0  0  0  0
   -4.4593    1.8863  -14.3419 C   0  0  0  0  0
   -4.9160    2.9940  -13.6228 C   0  0  0  0  0
   -5.5829    2.8085  -12.4058 C   0  0  0  0  0
   -5.7913    1.5180  -11.9072 C   0  0  0  0  0
   -5.3354    0.4102  -12.6252 C   0  0  0  0  0
   -4.1696   -3.7392  -14.4882 C   0  0  0  0  0
   -1.2948   -3.9508  -13.3022 O   0  0  0  0  0
   -1.6657   -7.5081  -17.2570 O   0  0  0  0  0
   -5.5631   -8.1379  -19.5800 O   0  0  0  0  0
   -4.4787   -7.6175  -26.9326 O   0  0  0  0  0
   -7.9744   -5.0988  -21.8412 O   0  0  0  0  0
   -8.4615   -0.8644  -18.8783 O   0  0  0  0  0
   -7.2033   -0.4653  -15.9073 O   0  0  0  0  0
   -4.2779   -3.5204  -13.2435 O   0  0  0  0  0
   -2.0874   -4.6192  -15.4070 N   0  0  0  0  0
   -2.8619   -8.8997  -18.6773 N   0  0  0  0  0
   -4.5815   -6.3275  -18.4616 N   0  0  0  0  0
   -6.1401   -4.8284  -20.4236 N   0  0  0  0  0
   -6.8003    0.1255  -23.5574 N   0  0  0  0  0
   -6.8955   -2.2270  -19.9504 N   0  0  0  0  0
   -3.9197    3.5312  -18.7298 N   0  0  0  0  0
   -5.5117   -0.8829  -17.4615 N   0  0  0  0  0
   -4.7007   -2.8082  -15.4330 N   0  0  0  0  0
   -5.0976   -6.8940  -13.9764 S   0  0  0  0  0
   -4.4250   -8.5970  -15.0683 S   0  0  0  0  0
  1  2  1  0  0  0
  2 52  1  0  0  0
  3 52  1  0  0  0
  3  4  1  0  0  0
  3 43  1  0  0  0
  4 61  1  0  0  0
  5 62  1  0  0  0
  5  6  1  0  0  0
  6  7  1  0  0  0
  6 54  1  0  0  0
  7 53  1  0  0  0
  9  8  1  0  0  0
  9 10  1  0  0  0
  9 55  1  0  0  0
 10 11  1  0  0  0
 12 13  1  0  0  0
 14 47  1  0  0  0
 14 15  1  0  0  0
 16 11  1  0  0  0
 18 17  1  0  0  0
 18 19  1  0  0  0
 18 57  1  0  0  0
 19 20  1  0  0  0
 20 21  1  0  0  0
 21 22  1  0  0  0
 22 56  1  0  0  0
 24 23  1  0  0  0
 24 25  1  0  0  0
 24 59  1  0  0  0
 25 26  1  0  0  0
 27 58  1  0  0  0
 29 30  1  0  0  0
 31 32  1  0  0  0
 33 26  1  0  0  0
 33 28  1  0  0  0
 35 34  1  0  0  0
 35 36  1  0  0  0
 35 60  1  0  0  0
 36 37  1  0  0  0
 38 39  1  0  0  0
 40 41  1  0  0  0
 42 37  1  0  0  0
 54  8  1  0  0  0
 55 17  1  0  0  0
 57 23  1  0  0  0
 58 28  1  0  0  0
 59 34  1  0  0  0
 60 43  1  0  0  0
 61 62  1  0  0  0
  2 44  2  0  0  0
  7 45  2  0  0  0
  8 46  2  0  0  0
 11 12  2  0  0  0
 13 14  2  0  0  0
 15 16  2  0  0  0
 17 48  2  0  0  0
 23 49  2  0  0  0
 26 27  2  0  0  0
 28 29  2  0  0  0
 30 31  2  0  0  0
 32 33  2  0  0  0
 34 50  2  0  0  0
 37 38  2  0  0  0
 39 40  2  0  0  0
 41 42  2  0  0  0
 43 51  2  0  0  0
M  END
> <rmsd>
0.742470264

$$$$
CHEMBL1076769 PubChem-46185077


 49 53  0  0  0  0  0  0  0  0999 V2000
   -8.1083  -14.8706  -14.0447 C   0  0  0  0  0
   -5.9820  -13.6113  -13.9056 C   0  0  0  0  0
   -6.4086  -12.6714  -14.8575 C   0  0  0  0  0
   -5.5814  -11.6094  -15.2532 C   0  0  0  0  0
   -6.0797  -10.6346  -16.2634 C   0  0  0  0  0
   -3.8993   -9.4406  -16.6050 C   0  0  0  0  0
   -3.3398   -8.3019  -17.4509 C   0  0  0  0  0
   -3.5365   -8.5790  -18.9262 C   0  0  0  0  0
   -4.6161   -6.6529  -18.5891 C   0  0  0  0  0
   -5.9417   -5.0773  -19.3918 C   0  0  0  0  0
   -7.3245   -4.4467  -19.4003 C   0  0  0  0  0
   -7.2495   -2.4939  -18.0810 C   0  0  0  0  0
   -5.1027   -1.1814  -18.0205 C   0  0  0  0  0
   -5.5871   -0.1215  -17.2155 C   0  0  0  0  0
   -7.3853    0.8152  -15.7855 C   0  0  0  0  0
   -4.8128    1.0359  -17.0590 C   0  0  0  0  0
   -3.5668    1.1410  -17.6654 C   0  0  0  0  0
   -2.8038    2.2938  -17.5061 C   0  0  0  0  0
   -1.5500    2.3729  -18.1066 C   0  0  0  0  0
   -1.0937    1.2859  -18.8537 C   0  0  0  0  0
   -3.0558    0.0789  -18.4411 C   0  0  0  0  0
   -3.8329   -1.0904  -18.6210 C   0  0  0  0  0
   -2.1598   -2.2714  -20.0683 C   0  0  0  0  0
   -8.0212   -1.6250  -19.0876 C   0  0  0  0  0
   -8.4919   -2.4194  -20.3031 C   0  0  0  0  0
   -7.5069   -3.5340  -20.6216 C   0  0  0  0  0
   -4.1061   -7.0179  -17.2144 C   0  0  0  0  0
   -4.3130  -11.4981  -14.6702 C   0  0  0  0  0
   -3.8674  -12.4293  -13.7182 C   0  0  0  0  0
   -1.6817  -11.2943  -13.4865 C   0  0  0  0  0
   -4.7068  -13.4873  -13.3409 C   0  0  0  0  0
   -6.8082  -14.6668  -13.5059 O   0  0  0  0  0
   -7.2839  -10.7120  -16.6297 O   0  0  0  0  0
   -5.2911   -9.6290  -16.8435 O   0  0  0  0  0
   -1.9747   -8.1567  -17.1857 O   0  0  0  0  0
   -4.6213   -7.8134  -19.3808 O   0  0  0  0  0
   -5.9113   -6.1424  -18.4909 O   0  0  0  0  0
   -7.6400   -3.8559  -18.1428 O   0  0  0  0  0
   -5.8389   -2.3560  -18.2490 O   0  0  0  0  0
   -6.8183   -0.2358  -16.5603 O   0  0  0  0  0
    0.0391    1.3362  -19.3988 O   0  0  0  0  0
   -1.8489    0.1986  -18.9940 O   0  0  0  0  0
   -3.4060   -2.1837  -19.3910 O   0  0  0  0  0
   -9.1223   -1.0460  -18.4591 O   0  0  0  0  0
   -8.6167   -1.5610  -21.3976 O   0  0  0  0  0
   -7.9702   -4.2884  -21.7000 O   0  0  0  0  0
   -3.2869   -5.9956  -16.7294 O   0  0  0  0  0
   -2.5990  -12.3222  -13.1396 O   0  0  0  0  0
   -4.2713  -14.4187  -12.4029 O   0  0  0  0  0
  1 32  1  0  0  0
  2 32  1  0  0  0
  3  4  1  0  0  0
  4  5  1  0  0  0
  5 34  1  0  0  0
  6 34  1  0  0  0
  7  6  1  0  0  0
  7 35  1  0  0  0
  7  8  1  0  0  0
  8 36  1  0  0  0
  9 36  1  0  0  0
  9 37  1  0  0  0
  9 27  1  0  0  0
 10 37  1  0  0  0
 11 10  1  0  0  0
 11 38  1  0  0  0
 12 38  1  0  0  0
 12 39  1  0  0  0
 12 24  1  0  0  0
 13 39  1  0  0  0
 14 40  1  0  0  0
 14 16  1  0  0  0
 15 40  1  0  0  0
 17 18  1  0  0  0
 19 20  1  0  0  0
 20 42  1  0  0  0
 21 42  1  0  0  0
 21 17  1  0  0  0
 22 43  1  0  0  0
 22 13  1  0  0  0
 23 43  1  0  0  0
 24 44  1  0  0  0
 24 25  1  0  0  0
 25 45  1  0  0  0
 25 26  1  0  0  0
 26 46  1  0  0  0
 26 11  1  0  0  0
 27 47  1  0  0  0
 27  7  1  0  0  0
 28 29  1  0  0  0
 29 48  1  0  0  0
 30 48  1  0  0  0
 31 49  1  0  0  0
 31  2  1  0  0  0
  2  3  2  0  0  0
  4 28  2  0  0  0
  5 33  2  0  0  0
 13 14  2  0  0  0
 16 17  2  0  0  0
 18 19  2  0  0  0
 20 41  2  0  0  0
 21 22  2  0  0  0
 29 31  2  0  0  0
M  END
> <rmsd>
0.599194765

$$$$
CHEMBL407558 PubChem-44460932


 89101  0  0  0  0  0  0  0  0999 V2000
   -0.9589   -2.7369  -20.6798 C   0  0  0  0  0
   -0.6899   -3.3740  -22.0805 C   0  0  0  0  0
   -0.9916   -1.4392  -23.5414 C   0  0  0  0  0
    0.3693   -0.9995  -23.1631 C   0  0  0  0  0
    1.3069   -1.9924  -22.7970 C   0  0  0  0  0
    2.6604   -1.6326  -22.6705 C   0  0  0  0  0
    3.0323   -0.2825  -22.7176 C   0  0  0  0  0
    2.0409    0.7097  -22.7781 C   0  0  0  0  0
    0.6847    0.3527  -22.9247 C   0  0  0  0  0
   -0.3536    1.2624  -22.3672 C   0  0  0  0  0
   -0.8679    1.0278  -21.0598 C   0  0  0  0  0
   -1.7776    1.9474  -20.4826 C   0  0  0  0  0
   -2.2358    1.8151  -19.0648 C   0  0  0  0  0
   -3.0561    0.7416  -18.6209 C   0  0  0  0  0
   -3.5367   -0.3167  -19.5239 C   0  0  0  0  0
   -3.5069   -2.8329  -19.9091 C   0  0  0  0  0
   -2.1235   -3.5049  -20.0289 C   0  0  0  0  0
   -1.2538   -3.7256  -17.6876 C   0  0  0  0  0
   -1.0864   -4.6000  -16.5031 C   0  0  0  0  0
   -2.0174   -5.6166  -16.1708 C   0  0  0  0  0
   -3.2643   -5.7892  -16.9553 C   0  0  0  0  0
   -4.2659   -4.7786  -16.9938 C   0  0  0  0  0
   -5.2654   -4.8595  -17.9834 C   0  0  0  0  0
   -6.1586   -3.7988  -18.1663 C   0  0  0  0  0
   -7.0730   -3.8184  -19.2410 C   0  0  0  0  0
   -7.8128   -2.6329  -19.5225 C   0  0  0  0  0
   -8.5503   -2.4544  -20.7968 C   0  0  0  0  0
   -7.8801   -2.1821  -22.0249 C   0  0  0  0  0
   -6.3992   -2.1205  -22.1700 C   0  0  0  0  0
   -4.1780   -2.6661  -21.2707 C   0  0  0  0  0
   -8.6499   -1.9792  -23.1785 C   0  0  0  0  0
  -10.0403   -2.0467  -23.1406 C   0  0  0  0  0
  -10.6950   -2.3289  -21.9404 C   0  0  0  0  0
   -9.9576   -2.5266  -20.7707 C   0  0  0  0  0
   -7.7339   -1.5361  -18.6392 C   0  0  0  0  0
   -6.8825   -1.5730  -17.5287 C   0  0  0  0  0
   -6.0609   -2.6810  -17.3146 C   0  0  0  0  0
   -4.3012   -3.6556  -16.1241 C   0  0  0  0  0
   -7.1251   -4.9969  -20.0289 C   0  0  0  0  0
   -5.3438   -5.9594  -18.8563 C   0  0  0  0  0
   -4.4209   -6.9999  -18.7354 C   0  0  0  0  0
   -3.3751   -6.9076  -17.8120 C   0  0  0  0  0
   -1.7881   -6.4266  -15.0396 C   0  0  0  0  0
   -0.6516   -6.2286  -14.2490 C   0  0  0  0  0
    0.2541   -5.2143  -14.5682 C   0  0  0  0  0
    0.0323   -4.4069  -15.6822 C   0  0  0  0  0
   -3.4037    0.6555  -17.2721 C   0  0  0  0  0
   -2.9819    1.6203  -16.3602 C   0  0  0  0  0
   -2.1815    2.6825  -16.7867 C   0  0  0  0  0
   -1.7950    2.7750  -18.1296 C   0  0  0  0  0
   -2.1813    3.0705  -21.2312 C   0  0  0  0  0
   -1.6728    3.2929  -22.5178 C   0  0  0  0  0
   -0.7573    2.3986  -23.0857 C   0  0  0  0  0
   -0.5879   -0.2641  -20.3977 C   0  0  0  0  0
    0.8052   -3.3960  -22.4681 C   0  0  0  0  0
   -1.4303   -2.6888  -23.0964 O   0  0  0  0  0
   -1.7449   -0.7161  -24.2483 O   0  0  0  0  0
   -3.9483   -0.0132  -20.6775 O   0  0  0  0  0
   -3.4863   -1.6517  -19.0866 O   0  0  0  0  0
   -1.7491   -4.2622  -18.8773 O   0  0  0  0  0
   -0.9219   -2.5080  -17.6257 O   0  0  0  0  0
   -5.8957   -1.8177  -23.2905 O   0  0  0  0  0
   -5.5571   -2.3929  -21.0944 O   0  0  0  0  0
  -10.6267   -2.8031  -19.5803 O   0  0  0  0  0
  -12.0825   -2.4006  -21.9066 O   0  0  0  0  0
  -10.7643   -1.8357  -24.3036 O   0  0  0  0  0
   -5.1762   -2.6732  -16.3233 O   0  0  0  0  0
   -3.5175   -3.5648  -15.1430 O   0  0  0  0  0
   -6.8176   -0.4843  -16.6678 O   0  0  0  0  0
   -8.4807   -0.3870  -18.8812 O   0  0  0  0  0
   -7.9770   -5.1294  -20.9482 O   0  0  0  0  0
   -6.2728   -5.9950  -19.8079 O   0  0  0  0  0
   -2.4207   -7.9152  -17.7719 O   0  0  0  0  0
   -4.5166   -8.1068  -19.5722 O   0  0  0  0  0
    1.3810   -5.0046  -13.7839 O   0  0  0  0  0
   -0.4197   -7.0423  -13.1437 O   0  0  0  0  0
   -2.6973   -7.4188  -14.6945 O   0  0  0  0  0
   -0.9568    3.8181  -18.5261 O   0  0  0  0  0
   -1.7560    3.6437  -15.8756 O   0  0  0  0  0
   -3.3514    1.5120  -15.0240 O   0  0  0  0  0
   -0.2541    2.6426  -24.3649 O   0  0  0  0  0
   -2.0843    4.4142  -23.2385 O   0  0  0  0  0
   -3.0946    3.9777  -20.7023 O   0  0  0  0  0
    0.2878   -0.3661  -19.4979 O   0  0  0  0  0
   -1.3106   -1.3699  -20.8386 O   0  0  0  0  0
    2.3998    2.0468  -22.6275 O   0  0  0  0  0
    4.3735    0.0730  -22.6187 O   0  0  0  0  0
    3.6419   -2.6040  -22.4844 O   0  0  0  0  0
    1.5479   -3.9817  -21.4319 O   0  0  0  0  0
  1  2  1  0  0  0
  1 85  1  0  0  0
  2 56  1  0  0  0
  3 56  1  0  0  0
  3  4  1  0  0  0
  5  6  1  0  0  0
  6 88  1  0  0  0
  7  8  1  0  0  0
  7 87  1  0  0  0
  8 86  1  0  0  0
  9 10  1  0  0  0
  9  4  1  0  0  0
 11 12  1  0  0  0
 11 54  1  0  0  0
 12 13  1  0  0  0
 14 15  1  0  0  0
 14 47  1  0  0  0
 15 59  1  0  0  0
 16 59  1  0  0  0
 16 17  1  0  0  0
 17 60  1  0  0  0
 17  1  1  0  0  0
 18 60  1  0  0  0
 18 19  1  0  0  0
 20 21  1  0  0  0
 20 43  1  0  0  0
 21 22  1  0  0  0
 23 24  1  0  0  0
 24 25  1  0  0  0
 25 39  1  0  0  0
 26 27  1  0  0  0
 26 35  1  0  0  0
 28 29  1  0  0  0
 28 31  1  0  0  0
 29 63  1  0  0  0
 30 63  1  0  0  0
 30 16  1  0  0  0
 32 33  1  0  0  0
 32 66  1  0  0  0
 33 65  1  0  0  0
 34 64  1  0  0  0
 34 27  1  0  0  0
 35 70  1  0  0  0
 36 37  1  0  0  0
 36 69  1  0  0  0
 37 67  1  0  0  0
 38 67  1  0  0  0
 38 22  1  0  0  0
 39 72  1  0  0  0
 40 72  1  0  0  0
 40 23  1  0  0  0
 41 42  1  0  0  0
 41 74  1  0  0  0
 42 73  1  0  0  0
 43 77  1  0  0  0
 44 45  1  0  0  0
 44 76  1  0  0  0
 45 75  1  0  0  0
 46 19  1  0  0  0
 48 49  1  0  0  0
 48 80  1  0  0  0
 49 79  1  0  0  0
 50 78  1  0  0  0
 50 13  1  0  0  0
 51 52  1  0  0  0
 51 83  1  0  0  0
 52 82  1  0  0  0
 53 81  1  0  0  0
 53 10  1  0  0  0
 54 85  1  0  0  0
 55  5  1  0  0  0
 55 89  1  0  0  0
 55  2  1  0  0  0
  3 57  2  0  0  0
  4  5  2  0  0  0
  6  7  2  0  0  0
  8  9  2  0  0  0
 10 11  2  0  0  0
 12 51  2  0  0  0
 13 14  2  0  0  0
 15 58  2  0  0  0
 18 61  2  0  0  0
 19 20  2  0  0  0
 22 23  2  0  0  0
 25 26  2  0  0  0
 27 28  2  0  0  0
 29 62  2  0  0  0
 31 32  2  0  0  0
 33 34  2  0  0  0
 35 36  2  0  0  0
 37 24  2  0  0  0
 38 68  2  0  0  0
 39 71  2  0  0  0
 40 41  2  0  0  0
 42 21  2  0  0  0
 43 44  2  0  0  0
 45 46  2  0  0  0
 47 48  2  0  0  0
 49 50  2  0  0  0
 52 53  2  0  0  0
 54 84  2  0  0  0
M  END
> <rmsd>
0.739104152

$$$$
CHEMBL2037050 PubChem-57409958


 47 51  0  0  0  0  0  0  0  0999 V2000
   -2.5381   -8.9556  -16.8681 C   0  0  0  0  0
   -1.4662   -6.6994  -17.0808 C   0  0  0  0  0
   -0.2520   -6.0024  -17.0534 C   0  0  0  0  0
   -0.2233   -4.6195  -17.2060 C   0  0  0  0  0
   -1.4017   -3.9024  -17.3895 C   0  0  0  0  0
   -2.3983   -1.8092  -17.7183 C   0  0  0  0  0
   -2.1556   -0.3491  -17.8666 C   0  0  0  0  0
   -3.1285    0.5290  -18.3754 C   0  0  0  0  0
   -2.8562    1.8919  -18.5216 C   0  0  0  0  0
   -1.6020    2.3934  -18.1647 C   0  0  0  0  0
   -0.6216    1.5321  -17.6662 C   0  0  0  0  0
   -0.8980    0.1696  -17.5213 C   0  0  0  0  0
   -3.6895   -2.3885  -17.7730 C   0  0  0  0  0
   -6.1126   -2.0006  -18.3111 C   0  0  0  0  0
   -7.3194   -3.0762  -19.8818 C   0  0  0  0  0
   -7.2440   -3.7733  -21.2309 C   0  0  0  0  0
   -7.1518   -5.9772  -21.3558 C   0  0  0  0  0
   -6.3440   -7.5512  -22.7658 C   0  0  0  0  0
   -6.4681   -8.1459  -24.1553 C   0  0  0  0  0
   -6.3361   -8.6643  -21.7036 C   0  0  0  0  0
   -6.2365   -8.0451  -20.3032 C   0  0  0  0  0
   -7.2715   -6.9265  -20.1579 C   0  0  0  0  0
   -8.0572   -6.1744  -17.9498 C   0  0  0  0  0
   -7.7998   -5.4245  -16.6928 C   0  0  0  0  0
   -8.5041   -2.0989  -19.8340 C   0  0  0  0  0
   -8.5191   -1.3774  -18.4836 C   0  0  0  0  0
   -7.1257   -0.8771  -18.0979 C   0  0  0  0  0
   -3.8025   -3.7889  -17.6163 C   0  0  0  0  0
   -2.6421   -4.5708  -17.4277 C   0  0  0  0  0
   -2.6738   -5.9803  -17.2677 C   0  0  0  0  0
   -1.4111   -8.0943  -16.9186 O   0  0  0  0  0
    0.9411   -6.6867  -16.8607 O   0  0  0  0  0
   -1.3350   -2.5864  -17.5267 O   0  0  0  0  0
   -1.3328    3.7482  -18.3026 O   0  0  0  0  0
   -4.8106   -1.5560  -17.9480 O   0  0  0  0  0
   -6.1172   -2.3812  -19.6642 O   0  0  0  0  0
   -8.0492   -4.9148  -21.2245 O   0  0  0  0  0
   -7.4267   -6.6801  -22.5432 O   0  0  0  0  0
   -5.2703   -9.5439  -21.9157 O   0  0  0  0  0
   -4.9506   -7.5384  -20.0911 O   0  0  0  0  0
   -7.0733   -6.2251  -18.9357 O   0  0  0  0  0
   -9.1640   -6.7541  -18.1117 O   0  0  0  0  0
   -9.7069   -2.7901  -19.9965 O   0  0  0  0  0
   -9.4100   -0.3045  -18.5321 O   0  0  0  0  0
   -7.1244   -0.4846  -16.7598 O   0  0  0  0  0
   -4.9382   -4.3345  -17.6288 O   0  0  0  0  0
   -3.8889   -6.6577  -17.2997 O   0  0  0  0  0
  1 31  1  0  0  0
  2 31  1  0  0  0
  3 32  1  0  0  0
  3  4  1  0  0  0
  5 33  1  0  0  0
  6 33  1  0  0  0
  6  7  1  0  0  0
  8  9  1  0  0  0
 10 34  1  0  0  0
 10 11  1  0  0  0
 12  7  1  0  0  0
 13 35  1  0  0  0
 13 28  1  0  0  0
 14 35  1  0  0  0
 14 36  1  0  0  0
 15 36  1  0  0  0
 15 16  1  0  0  0
 15 25  1  0  0  0
 16 37  1  0  0  0
 17 37  1  0  0  0
 17 38  1  0  0  0
 18 38  1  0  0  0
 18 19  1  0  0  0
 18 20  1  0  0  0
 20 39  1  0  0  0
 20 21  1  0  0  0
 21 40  1  0  0  0
 21 22  1  0  0  0
 22 41  1  0  0  0
 22 17  1  0  0  0
 23 41  1  0  0  0
 24 23  1  0  0  0
 25 43  1  0  0  0
 25 26  1  0  0  0
 26 44  1  0  0  0
 26 27  1  0  0  0
 27 45  1  0  0  0
 27 14  1  0  0  0
 28 29  1  0  0  0
 29  5  1  0  0  0
 30 47  1  0  0  0
 30  2  1  0  0  0
  2  3  2  0  0  0
  4  5  2  0  0  0
  6 13  2  0  0  0
  7  8  2  0  0  0
  9 10  2  0  0  0
 11 12  2  0  0  0
 23 42  2  0  0  0
 28 46  2  0  0  0
 29 30  2  0  0  0
M  END
> <rmsd>
0.748516023

$$$$
CHEMBL3980482


 45 48  0  0  0  0  0  0  0  0999 V2000
   -5.7066   -1.1640  -19.4625 O   0  0  0  0  0
   -7.1655   -2.3585  -21.5852 O   0  0  0  0  0
   -9.5249   -2.9219  -22.5904 O   0  0  0  0  0
   -7.8372   -4.9149  -22.5211 O   0  0  0  0  0
   -5.3087   -4.3111  -22.7597 O   0  0  0  0  0
   -5.8760   -6.8189  -22.3149 O   0  0  0  0  0
   -6.1128   -4.8736  -20.3104 O   0  0  0  0  0
   -4.5019   -5.1597  -18.2894 O   0  0  0  0  0
   -4.7617   -7.2522  -19.8306 O   0  0  0  0  0
   -1.7636   -8.4091  -16.5835 O   0  0  0  0  0
   -4.5190   -9.4878  -18.1718 O   0  0  0  0  0
   -3.2630  -15.2358  -19.7917 O   0  0  0  0  0
   -1.8325  -10.9908  -16.4494 O   0  0  0  0  0
   -8.6235   -0.8389  -17.6745 O   0  0  0  0  0
   -6.7003    0.3847  -16.4770 O   0  0  0  0  0
   -0.8280    3.1972  -18.5642 O   0  0  0  0  0
   -7.0992   -1.3563  -19.4159 C   0  0  0  0  0
   -7.6930   -1.3186  -20.8165 C   0  0  0  0  0
   -3.5008   -7.7353  -19.4630 C   0  0  0  0  0
   -3.5771   -8.4412  -18.1177 C   0  0  0  0  0
   -2.2110   -9.0025  -17.7679 C   0  0  0  0  0
   -2.4683  -10.4764  -17.5853 C   0  0  0  0  0
   -3.9664  -10.5371  -17.4222 C   0  0  0  0  0
   -4.7336  -13.7695  -18.6533 C   0  0  0  0  0
   -5.7823  -12.2251  -17.6637 C   0  0  0  0  0
   -4.4137  -15.0406  -19.3118 C   0  0  0  0  0
   -7.7186   -0.2659  -18.5699 C   0  0  0  0  0
   -6.5376    0.3572  -17.8645 C   0  0  0  0  0
   -5.3855   -0.5511  -18.2412 C   0  0  0  0  0
   -2.6767    1.7239  -18.4411 C   0  0  0  0  0
   -2.9206   -0.3697  -18.5898 C   0  0  0  0  0
   -2.0705    3.0589  -18.4077 C   0  0  0  0  0
   -8.4093   -3.5092  -21.7502 P   0  0  0  0  0
   -6.2491   -5.2022  -21.9804 P   0  0  0  0  0
   -4.6622   -5.5588  -19.7387 P   0  0  0  0  0
   -9.2110   -4.0590  -19.8709 S   0  0  0  0  0
   -2.9793   -4.8270  -20.8051 S   0  0  0  0  0
   -4.5169  -11.8150  -17.8650 N   0  0  0  0  0
   -3.8453  -12.7715  -18.4834 N   0  0  0  0  0
   -5.9569  -13.4689  -18.1583 N   0  0  0  0  0
   -5.3988  -16.0642  -19.4047 N   0  0  0  0  0
   -4.1295    0.1833  -18.3647 N   0  0  0  0  0
   -3.9920    1.4946  -18.2711 N   0  0  0  0  0
   -1.9708    0.5874  -18.6403 N   0  0  0  0  0
   -2.8896    4.2076  -18.2022 N   0  0  0  0  0
 17  1  1  0  0  0
 17 18  1  0  0  0
 17 27  1  0  0  0
 18  2  1  0  0  0
 19  9  1  0  0  0
 20 19  1  0  0  0
 20 21  1  0  0  0
 20 11  1  0  0  0
 21 10  1  0  0  0
 21 22  1  0  0  0
 22 23  1  0  0  0
 22 13  1  0  0  0
 23 11  1  0  0  0
 23 38  1  0  0  0
 24 40  1  0  0  0
 24 26  1  0  0  0
 25 38  1  0  0  0
 26 41  1  0  0  0
 27 14  1  0  0  0
 27 28  1  0  0  0
 28 15  1  0  0  0
 28 29  1  0  0  0
 29 42  1  0  0  0
 29  1  1  0  0  0
 30 44  1  0  0  0
 30 32  1  0  0  0
 31 42  1  0  0  0
 32 45  1  0  0  0
 33  2  1  0  0  0
 33 36  1  0  0  0
 33  4  1  0  0  0
 34  4  1  0  0  0
 34  6  1  0  0  0
 34  7  1  0  0  0
 35  7  1  0  0  0
 35  9  1  0  0  0
 35 37  1  0  0  0
 38 39  1  0  0  0
 42 43  1  0  0  0
 24 39  2  0  0  0
 25 40  2  0  0  0
 26 12  2  0  0  0
 30 43  2  0  0  0
 31 44  2  0  0  0
 32 16  2  0  0  0
 33  3  2  0  0  0
 34  5  2  0  0  0
 35  8  2  0  0  0
M  END
> <rmsd>
0.843648016

$$$$
CHEMBL4439305 PubChem-155514033


 40 43  0  0  0  0  0  0  0  0999 V2000
   -4.5388   -5.8698  -17.2110 C   0  0  0  0  0
   -3.9777   -4.5222  -16.7879 C   0  0  0  0  0
   -3.7808   -3.1453  -14.7923 C   0  0  0  0  0
   -3.2812   -2.0014  -15.5774 C   0  0  0  0  0
   -2.8895   -1.0765  -16.2424 C   0  0  0  0  0
   -2.4367    0.0156  -17.0598 C   0  0  0  0  0
   -2.0535    1.2129  -16.4475 C   0  0  0  0  0
   -1.6149    2.2990  -17.2169 C   0  0  0  0  0
   -1.5644    2.1742  -18.6120 C   0  0  0  0  0
   -1.9493    0.9810  -19.2286 C   0  0  0  0  0
   -2.3915   -0.1077  -18.4594 C   0  0  0  0  0
   -2.7868   -1.5007  -20.4709 C   0  0  0  0  0
   -1.2154    3.5586  -16.5652 C   0  0  0  0  0
   -5.9717   -3.4857  -15.8202 C   0  0  0  0  0
   -5.9885   -2.3216  -16.8190 C   0  0  0  0  0
   -7.3021   -1.5799  -16.7175 C   0  0  0  0  0
   -8.0702   -2.1004  -17.8989 C   0  0  0  0  0
   -6.9817   -2.5117  -18.8585 C   0  0  0  0  0
   -7.4777   -3.7537  -20.9869 C   0  0  0  0  0
   -7.9808   -5.6890  -20.2706 C   0  0  0  0  0
   -7.7054   -4.9040  -19.2081 C   0  0  0  0  0
   -8.1034   -6.6613  -17.7281 C   0  0  0  0  0
   -8.3339   -7.0162  -20.0765 C   0  0  0  0  0
   -4.0345   -6.2339  -18.5980 C   0  0  0  0  0
   -2.5980   -6.6404  -18.5577 C   0  0  0  0  0
   -4.6365   -4.0556  -15.5669 N   0  0  0  0  0
   -1.3019    3.6968  -15.1486 N   0  0  0  0  0
   -7.3876   -3.6762  -19.6357 N   0  0  0  0  0
   -7.8477   -4.9946  -21.4162 N   0  0  0  0  0
   -7.7572   -5.3540  -17.9306 N   0  0  0  0  0
   -8.3871   -7.4802  -18.7924 N   0  0  0  0  0
   -8.6219   -7.8764  -21.1730 N   0  0  0  0  0
   -4.8356   -7.3176  -19.1388 N   0  0  0  0  0
   -2.7873   -1.3086  -19.0634 O   0  0  0  0  0
   -0.7947    4.5267  -17.2544 O   0  0  0  0  0
   -5.8096   -2.8000  -18.1350 O   0  0  0  0  0
   -8.8840   -1.1196  -18.4707 O   0  0  0  0  0
   -7.0522   -0.2097  -16.8445 O   0  0  0  0  0
   -1.7376   -5.9562  -19.1711 O   0  0  0  0  0
   -2.2036   -7.7624  -17.8394 O   0  0  0  0  0
  1  2  1  0  0  0
  1 24  1  0  0  0
  2 26  1  0  0  0
  3 26  1  0  0  0
  3  4  1  0  0  0
  6  5  1  0  0  0
  7  8  1  0  0  0
  8 13  1  0  0  0
  9 10  1  0  0  0
 11 34  1  0  0  0
 11  6  1  0  0  0
 12 34  1  0  0  0
 13 27  1  0  0  0
 14 26  1  0  0  0
 15 14  1  0  0  0
 15 16  1  0  0  0
 15 36  1  0  0  0
 16 17  1  0  0  0
 16 38  1  0  0  0
 17 18  1  0  0  0
 17 37  1  0  0  0
 18 36  1  0  0  0
 18 28  1  0  0  0
 20 29  1  0  0  0
 21 30  1  0  0  0
 21 28  1  0  0  0
 22 31  1  0  0  0
 23 32  1  0  0  0
 23 20  1  0  0  0
 24 25  1  0  0  0
 24 33  1  0  0  0
 25 40  1  0  0  0
 28 19  1  0  0  0
  6  7  2  0  0  0
  8  9  2  0  0  0
 10 11  2  0  0  0
 13 35  2  0  0  0
 19 29  2  0  0  0
 20 21  2  0  0  0
 22 30  2  0  0  0
 23 31  2  0  0  0
 25 39  2  0  0  0
  4  5  3  0  0  0
M  END
> <rmsd>
0.687919378

$$$$
CHEMBL2078827 PubChem-57413029


 84 90  0  0  0  0  0  0  0  0999 V2000
   -5.4861   -6.9943  -23.3311 O   0  0  0  0  0
   -4.9259   -8.9988  -22.0316 O   0  0  0  0  0
   -7.2450   -7.8721  -21.5746 O   0  0  0  0  0
   -6.2525   -6.1491  -18.4335 O   0  0  0  0  0
   -4.3961   -8.0137  -19.2120 O   0  0  0  0  0
   -2.3502   -7.9273  -17.6088 O   0  0  0  0  0
   -3.3814  -10.1043  -18.0431 O   0  0  0  0  0
   -4.6354   -8.4225  -16.4915 O   0  0  0  0  0
   -6.2248   -3.8798  -18.0055 O   0  0  0  0  0
    0.4976    2.3849  -16.4182 O   0  0  0  0  0
   -3.0947   -2.1244  -18.7159 O   0  0  0  0  0
   -2.0676   -4.6588  -18.3497 O   0  0  0  0  0
    0.1841   -4.9981  -19.6125 O   0  0  0  0  0
   -1.7114   -6.4182  -20.2544 O   0  0  0  0  0
   -1.7303   -3.9192  -20.9896 O   0  0  0  0  0
   -5.1113    0.7601  -17.8322 O   0  0  0  0  0
   -4.2133    2.4309  -19.6413 O   0  0  0  0  0
   -6.3268    1.2676  -20.1157 O   0  0  0  0  0
   -6.3390    3.1508  -18.3364 O   0  0  0  0  0
   -7.0907   -1.1949  -18.5455 O   0  0  0  0  0
   -8.0564   -2.1710  -16.3057 O   0  0  0  0  0
   -7.5308    0.2168  -16.3775 O   0  0  0  0  0
   -9.6177   -0.6087  -17.6714 O   0  0  0  0  0
   -8.7812   -5.0531  -18.9084 O   0  0  0  0  0
  -10.4216   -3.4206  -17.7221 O   0  0  0  0  0
   -9.6016   -2.7390  -19.9358 O   0  0  0  0  0
  -11.3515   -4.6545  -19.8080 O   0  0  0  0  0
   -7.2856   -4.8532  -22.0920 O   0  0  0  0  0
   -9.4890   -6.0536  -22.9557 O   0  0  0  0  0
   -9.3247   -3.6180  -23.1584 O   0  0  0  0  0
   -7.9020   -5.0882  -24.7561 O   0  0  0  0  0
   -6.6975   -9.2126  -23.9043 O   0  0  0  0  0
   -6.0373   -8.2450  -22.6992 S   0  0  0  0  0
   -3.6523   -8.6406  -17.8381 S   0  0  0  0  0
   -1.3079   -5.0403  -19.8087 S   0  0  0  0  0
   -5.4806    1.8872  -19.0345 S   0  0  0  0  0
   -8.0497   -0.9436  -17.1740 S   0  0  0  0  0
  -10.0209   -3.9125  -19.0909 S   0  0  0  0  0
   -8.5541   -4.9061  -23.2179 S   0  0  0  0  0
   -6.7636   -6.8022  -20.8101 C   0  0  0  0  0
   -7.6948   -5.5903  -20.9772 C   0  0  0  0  0
   -7.7168   -4.6822  -19.7464 C   0  0  0  0  0
   -6.3936   -4.8530  -18.9977 C   0  0  0  0  0
   -6.6469   -7.1949  -19.3194 C   0  0  0  0  0
   -5.7356   -8.4006  -19.1216 C   0  0  0  0  0
   -5.3836   -2.9017  -18.5667 C   0  0  0  0  0
   -5.8148   -1.5188  -18.0666 C   0  0  0  0  0
   -4.8033   -0.4464  -18.4803 C   0  0  0  0  0
   -3.4141   -0.9282  -18.0492 C   0  0  0  0  0
   -1.7865    0.8496  -17.4243 C   0  0  0  0  0
   -0.9481    1.6640  -18.1604 C   0  0  0  0  0
   -0.1003    2.7660  -17.6313 C   0  0  0  0  0
    0.2348    3.3689  -15.4404 C   0  0  0  0  0
    0.9144    4.7081  -15.7551 C   0  0  0  0  0
    0.6962    5.7014  -14.6142 C   0  0  0  0  0
   -0.7942    5.9067  -14.3069 C   0  0  0  0  0
   -1.4288    4.5320  -13.9789 C   0  0  0  0  0
   -1.2595    3.5267  -15.1165 C   0  0  0  0  0
   -2.8944    4.6546  -13.5627 C   0  0  0  0  0
   -2.9997    5.5455  -12.3306 C   0  0  0  0  0
   -2.4256    6.9283  -12.6336 C   0  0  0  0  0
   -0.9417    6.8119  -13.0672 C   0  0  0  0  0
   -0.2692    8.1943  -13.2394 C   0  0  0  0  0
   -0.4695    9.0892  -12.0028 C   0  0  0  0  0
   -1.9586    9.2137  -11.6816 C   0  0  0  0  0
   -2.4746    7.8200  -11.4000 C   0  0  0  0  0
   -3.7961    8.0027  -10.6856 C   0  0  0  0  0
   -3.5856    9.2743   -9.8700 C   0  0  0  0  0
   -2.2634    9.9061  -10.3503 C   0  0  0  0  0
   -2.3381   11.4414  -10.3922 C   0  0  0  0  0
   -2.6990   11.9972   -9.0184 C   0  0  0  0  0
   -3.4206   13.3288   -9.1346 C   0  0  0  0  0
   -2.4329   14.4531   -9.3619 C   0  0  0  0  0
   -3.1518   15.7849   -9.4995 C   0  0  0  0  0
   -3.6304   16.2752   -8.1453 C   0  0  0  0  0
   -2.1991   16.8104  -10.0865 C   0  0  0  0  0
   -1.0053   12.0204  -10.8240 C   0  0  0  0  0
   -2.7159    9.8772  -12.8485 C   0  0  0  0  0
   -1.4796    6.5625  -15.5119 C   0  0  0  0  0
   -3.9101   -3.1345  -18.1653 C   0  0  0  0  0
   -3.4193   -4.4834  -18.6651 C   0  0  0  0  0
   -2.4002    0.0804  -18.3393 N   0  0  0  0  0
   -1.0909    1.3827  -19.4709 N   0  0  0  0  0
   -1.9834    0.4046  -19.5517 N   0  0  0  0  0
 33  3  1  0  0  0
 33 32  1  0  0  0
 34  5  1  0  0  0
 34  8  1  0  0  0
 35 12  1  0  0  0
 35 15  1  0  0  0
 36 16  1  0  0  0
 36 19  1  0  0  0
 37 20  1  0  0  0
 37 23  1  0  0  0
 38 24  1  0  0  0
 38 27  1  0  0  0
 39 28  1  0  0  0
 39 31  1  0  0  0
 40  3  1  0  0  0
 40 41  1  0  0  0
 41 42  1  0  0  0
 41 28  1  0  0  0
 42 43  1  0  0  0
 42 24  1  0  0  0
 43  4  1  0  0  0
 43  9  1  0  0  0
 44  4  1  0  0  0
 44 45  1  0  0  0
 44 40  1  0  0  0
 45  5  1  0  0  0
 46  9  1  0  0  0
 46 47  1  0  0  0
 47 48  1  0  0  0
 47 20  1  0  0  0
 48 49  1  0  0  0
 48 16  1  0  0  0
 49 82  1  0  0  0
 49 11  1  0  0  0
 51 83  1  0  0  0
 52 51  1  0  0  0
 52 10  1  0  0  0
 53 10  1  0  0  0
 53 54  1  0  0  0
 54 55  1  0  0  0
 55 56  1  0  0  0
 56 57  1  0  0  0
 56 79  1  0  0  0
 57 58  1  0  0  0
 57 59  1  0  0  0
 58 53  1  0  0  0
 59 60  1  0  0  0
 61 60  1  0  0  0
 61 62  1  0  0  0
 62 63  1  0  0  0
 62 56  1  0  0  0
 63 64  1  0  0  0
 64 65  1  0  0  0
 65 66  1  0  0  0
 65 78  1  0  0  0
 66 67  1  0  0  0
 66 61  1  0  0  0
 67 68  1  0  0  0
 69 68  1  0  0  0
 69 70  1  0  0  0
 69 65  1  0  0  0
 70 71  1  0  0  0
 70 77  1  0  0  0
 71 72  1  0  0  0
 72 73  1  0  0  0
 73 74  1  0  0  0
 74 75  1  0  0  0
 74 76  1  0  0  0
 80 11  1  0  0  0
 80 81  1  0  0  0
 80 46  1  0  0  0
 81 12  1  0  0  0
 82 50  1  0  0  0
 82 84  1  0  0  0
 33  1  2  0  0  0
 33  2  2  0  0  0
 34  6  2  0  0  0
 34  7  2  0  0  0
 35 13  2  0  0  0
 35 14  2  0  0  0
 36 17  2  0  0  0
 36 18  2  0  0  0
 37 21  2  0  0  0
 37 22  2  0  0  0
 38 25  2  0  0  0
 38 26  2  0  0  0
 39 29  2  0  0  0
 39 30  2  0  0  0
 50 51  2  0  0  0
 83 84  2  0  0  0
M  END
> <rmsd>
0.632343113

$$$$
CHEMBL1207869 PubChem-135960737


 52 57  0  0  0  0  0  0  0  0999 V2000
   -4.9362   -8.9051  -19.6271 N   0  0  0  0  0
   -4.6661  -10.2336  -17.6699 N   0  0  0  0  0
   -6.4394   -7.0267  -19.3443 N   0  0  0  0  0
   -6.9820   -7.4526  -17.1806 N   0  0  0  0  0
   -7.3945    1.9819  -14.9444 N   0  0  0  0  0
   -7.4084    3.4390  -13.0789 N   0  0  0  0  0
   -5.8370    5.2559  -12.8742 N   0  0  0  0  0
   -4.8979   -0.3982  -20.5642 N   0  0  0  0  0
   -2.6245    1.1303  -19.5661 N   0  0  0  0  0
   -2.5927    1.8310  -17.4637 N   0  0  0  0  0
   -3.4595  -10.8129  -19.6834 N   0  0  0  0  0
   -4.3692   -9.9724  -18.9855 C   0  0  0  0  0
   -5.5322   -9.4430  -16.9701 C   0  0  0  0  0
   -6.1018   -8.3638  -17.6320 C   0  0  0  0  0
   -5.7907   -8.1217  -18.9243 C   0  0  0  0  0
   -7.1789   -6.6496  -18.2650 C   0  0  0  0  0
   -6.4575   -6.4348  -20.6875 C   0  0  0  0  0
   -4.5133   -5.3996  -21.2721 C   0  0  0  0  0
   -5.3558   -4.3730  -20.5506 C   0  0  0  0  0
   -6.7439   -4.9462  -20.6175 C   0  0  0  0  0
   -8.5137   -3.8455  -21.3475 C   0  0  0  0  0
   -6.0152   -1.2011  -17.8035 C   0  0  0  0  0
   -7.2777   -0.7822  -17.0744 C   0  0  0  0  0
   -8.0872    0.1618  -17.9360 C   0  0  0  0  0
   -8.5515    1.2306  -16.9764 C   0  0  0  0  0
   -7.9366    0.8220  -15.6543 C   0  0  0  0  0
   -7.9253    2.3680  -13.7409 C   0  0  0  0  0
   -6.3631    4.1397  -13.5874 C   0  0  0  0  0
   -5.8055    3.7695  -14.8104 C   0  0  0  0  0
   -6.3460    2.6715  -15.4788 C   0  0  0  0  0
   -3.6343   -0.3035  -21.2757 C   0  0  0  0  0
   -2.9785    1.0358  -20.9761 C   0  0  0  0  0
   -1.7121    0.3895  -18.9164 C   0  0  0  0  0
   -1.6971    0.8286  -17.6057 C   0  0  0  0  0
   -3.1450    1.9953  -18.6804 C   0  0  0  0  0
   -3.1680   -5.5770  -20.5801 C   0  0  0  0  0
   -5.7993   -9.6919  -15.7640 O   0  0  0  0  0
   -5.2090   -6.6259  -21.3225 O   0  0  0  0  0
   -7.3985   -4.5504  -21.7880 O   0  0  0  0  0
   -5.2616   -3.1211  -21.1679 O   0  0  0  0  0
   -3.7291   -2.3670  -19.1691 O   0  0  0  0  0
   -6.3254   -2.0957  -18.8303 O   0  0  0  0  0
   -6.9274   -0.1264  -15.8847 O   0  0  0  0  0
   -8.8937    1.7402  -13.2363 O   0  0  0  0  0
   -9.9435    1.2594  -16.8497 O   0  0  0  0  0
   -9.1556   -0.5274  -18.5165 O   0  0  0  0  0
   -3.3479   -6.0276  -19.2687 O   0  0  0  0  0
   -1.7015   -8.0129  -19.8065 O   0  0  0  0  0
   -0.5987   -5.7916  -18.9579 O   0  0  0  0  0
   -2.0527   -7.4353  -17.2846 O   0  0  0  0  0
   -5.0109   -2.0201  -19.9021 P   0  0  0  0  0
   -1.9186   -6.8490  -18.8648 P   0  0  0  0  0
  2 13  1  0  0  0
  3 16  1  0  0  0
  5 27  1  0  0  0
  9 33  1  0  0  0
 12  2  1  0  0  0
 12 11  1  0  0  0
 13 14  1  0  0  0
 14  4  1  0  0  0
 15  3  1  0  0  0
 15  1  1  0  0  0
 17  3  1  0  0  0
 17 38  1  0  0  0
 18 38  1  0  0  0
 18 19  1  0  0  0
 18 36  1  0  0  0
 19 20  1  0  0  0
 19 40  1  0  0  0
 20 39  1  0  0  0
 20 17  1  0  0  0
 21 39  1  0  0  0
 22 42  1  0  0  0
 23 22  1  0  0  0
 23 24  1  0  0  0
 23 43  1  0  0  0
 24 25  1  0  0  0
 24 46  1  0  0  0
 25 26  1  0  0  0
 25 45  1  0  0  0
 26 43  1  0  0  0
 26  5  1  0  0  0
 27  6  1  0  0  0
 28 29  1  0  0  0
 28  7  1  0  0  0
 30  5  1  0  0  0
 31  8  1  0  0  0
 31 32  1  0  0  0
 32  9  1  0  0  0
 34 10  1  0  0  0
 35  9  1  0  0  0
 36 47  1  0  0  0
 51 40  1  0  0  0
 51 42  1  0  0  0
 51  8  1  0  0  0
 52 47  1  0  0  0
 52 49  1  0  0  0
 52 50  1  0  0  0
 12  1  2  0  0  0
 13 37  2  0  0  0
 14 15  2  0  0  0
 16  4  2  0  0  0
 27 44  2  0  0  0
 28  6  2  0  0  0
 29 30  2  0  0  0
 33 34  2  0  0  0
 35 10  2  0  0  0
 51 41  2  0  0  0
 52 48  2  0  0  0
M  END
> <rmsd>
0.60605675

$$$$
CHEMBL393164 PubChem-15991584


 32 35  0  0  0  0  0  0  0  0999 V2000
   -3.4767   -9.8513  -18.2748 C   0  0  0  0  0
   -2.8166   -8.6928  -18.9972 C   0  0  0  0  0
   -3.8270   -7.9354  -19.7923 C   0  0  0  0  0
   -5.4986   -6.7734  -20.3293 C   0  0  0  0  0
   -6.7242   -5.9512  -20.2817 C   0  0  0  0  0
   -7.2464   -6.4749  -17.8375 C   0  0  0  0  0
   -8.2334   -5.9145  -16.8317 C   0  0  0  0  0
   -9.1975   -5.0360  -17.6156 C   0  0  0  0  0
   -8.5485   -4.7788  -18.9646 C   0  0  0  0  0
   -8.0614   -3.3670  -19.0469 C   0  0  0  0  0
   -6.4996   -1.5488  -18.1159 C   0  0  0  0  0
   -5.9437   -1.1360  -19.4765 C   0  0  0  0  0
   -5.0505    0.0556  -19.3573 C   0  0  0  0  0
   -5.2771    1.3067  -19.9188 C   0  0  0  0  0
   -3.4028    1.4209  -18.8716 C   0  0  0  0  0
   -2.1980    1.8549  -18.3223 C   0  0  0  0  0
   -1.4490    0.9274  -17.5748 C   0  0  0  0  0
   -1.9145   -0.3937  -17.3958 C   0  0  0  0  0
   -3.1348   -0.8040  -17.9620 C   0  0  0  0  0
   -3.8511    0.1406  -18.6953 C   0  0  0  0  0
   -7.5012   -0.5720  -17.5823 C   0  0  0  0  0
   -4.8033   -7.0957  -21.4798 C   0  0  0  0  0
   -2.1831   -7.8120  -18.0316 N   0  0  0  0  0
   -4.8838   -7.2982  -19.2520 N   0  0  0  0  0
   -7.4342   -5.7069  -19.0534 N   0  0  0  0  0
   -7.0433   -2.9040  -18.1486 N   0  0  0  0  0
   -4.2569    2.1491  -19.6145 N   0  0  0  0  0
   -7.1525   -5.4419  -21.3530 O   0  0  0  0  0
   -8.5476   -2.5999  -19.9196 O   0  0  0  0  0
   -7.3275   -0.0647  -16.4443 O   0  0  0  0  0
   -8.6166   -0.2166  -18.3305 O   0  0  0  0  0
   -3.7766   -7.8181  -21.0979 O   0  0  0  0  0
  2  1  1  0  0  0
  2 23  1  0  0  0
  2  3  1  0  0  0
  3 32  1  0  0  0
  4 24  1  0  0  0
  4  5  1  0  0  0
  5 25  1  0  0  0
  6 25  1  0  0  0
  6  7  1  0  0  0
  7  8  1  0  0  0
  8  9  1  0  0  0
  9 10  1  0  0  0
  9 25  1  0  0  0
 10 26  1  0  0  0
 11 26  1  0  0  0
 11 12  1  0  0  0
 11 21  1  0  0  0
 12 13  1  0  0  0
 14 27  1  0  0  0
 16 17  1  0  0  0
 18 19  1  0  0  0
 20 13  1  0  0  0
 20 15  1  0  0  0
 21 31  1  0  0  0
 22 32  1  0  0  0
 27 15  1  0  0  0
  3 24  2  0  0  0
  4 22  2  0  0  0
  5 28  2  0  0  0
 10 29  2  0  0  0
 13 14  2  0  0  0
 15 16  2  0  0  0
 17 18  2  0  0  0
 19 20  2  0  0  0
 21 30  2  0  0  0
M  END
> <rmsd>
0.680561662

$$$$
CHEMBL2058767 PubChem-11593393


 91102  0  0  0  0  0  0  0  0999 V2000
   -3.8746   -7.9025  -21.2362 C   0  0  0  0  0
   -3.2431   -7.8984  -19.8519 C   0  0  0  0  0
   -2.2118   -8.9979  -19.7607 C   0  0  0  0  0
   -2.3511   -9.4899  -18.3527 C   0  0  0  0  0
   -3.7922   -9.1562  -18.0355 C   0  0  0  0  0
   -4.5238  -11.5183  -17.5544 C   0  0  0  0  0
   -6.2405  -11.7364  -18.7922 C   0  0  0  0  0
   -7.3698  -12.1451  -19.4863 C   0  0  0  0  0
   -7.4175   -9.9952  -20.5278 C   0  0  0  0  0
   -5.7375  -10.4976  -18.9843 C   0  0  0  0  0
   -6.0548   -4.4938  -21.6031 C   0  0  0  0  0
   -7.4086   -3.9986  -21.1784 C   0  0  0  0  0
   -7.2924   -2.4993  -21.3075 C   0  0  0  0  0
   -8.1859   -1.8045  -20.2827 C   0  0  0  0  0
   -6.4888    0.5941  -19.0192 C   0  0  0  0  0
   -5.5379    2.1961  -17.8000 C   0  0  0  0  0
   -5.8175    3.3437  -16.8714 C   0  0  0  0  0
   -5.3449    4.5374  -17.6658 C   0  0  0  0  0
   -4.9097    5.6539  -16.7332 C   0  0  0  0  0
   -4.1491    9.0141  -15.7150 C   0  0  0  0  0
   -4.6857    8.9656  -13.5541 C   0  0  0  0  0
   -4.8324    7.8912  -12.5056 C   0  0  0  0  0
   -5.3864    8.6339  -11.3033 C   0  0  0  0  0
   -4.4302    8.5090  -10.1304 C   0  0  0  0  0
   -5.5679   10.0710  -13.0298 C   0  0  0  0  0
   -5.7008   12.2699  -14.2489 C   0  0  0  0  0
   -3.8087   13.1391  -13.8281 C   0  0  0  0  0
   -2.6576   13.9057  -13.7348 C   0  0  0  0  0
   -1.7124   12.1840  -12.3774 C   0  0  0  0  0
   -3.8762   11.9424  -13.2016 C   0  0  0  0  0
   -4.4130    2.7431  -18.6741 C   0  0  0  0  0
   -2.8373    1.1996  -17.3961 C   0  0  0  0  0
   -1.0599    1.3938  -18.5351 C   0  0  0  0  0
    0.2077    1.3471  -19.0961 C   0  0  0  0  0
   -0.5452    2.8595  -20.7803 C   0  0  0  0  0
   -2.0137    2.1648  -19.1046 C   0  0  0  0  0
   -5.2031   -3.2392  -21.6065 C   0  0  0  0  0
   -2.7273   -3.3993  -21.2433 C   0  0  0  0  0
   -2.6061   -3.8518  -19.1722 C   0  0  0  0  0
   -2.2464   -4.1613  -17.8715 C   0  0  0  0  0
   -4.5626   -4.1713  -17.3064 C   0  0  0  0  0
   -3.9058   -3.7136  -19.4969 C   0  0  0  0  0
   -0.9349   -8.4887  -20.0198 O   0  0  0  0  0
   -1.5222   -8.7726  -17.4898 O   0  0  0  0  0
   -4.2203   -8.0895  -18.8516 O   0  0  0  0  0
   -4.9623   -7.0341  -21.2614 O   0  0  0  0  0
   -5.4757   -7.4420  -23.8034 O   0  0  0  0  0
   -3.4522   -5.8586  -23.2927 O   0  0  0  0  0
   -6.0735   -5.0623  -22.8861 O   0  0  0  0  0
   -7.7213   -2.0002  -18.9806 O   0  0  0  0  0
   -9.1266    0.1516  -18.4148 O   0  0  0  0  0
   -6.6560    1.9165  -18.5976 O   0  0  0  0  0
   -4.5639    6.7878  -17.4755 O   0  0  0  0  0
   -2.3277    8.1396  -17.5310 O   0  0  0  0  0
   -5.1136    8.5350  -14.8181 O   0  0  0  0  0
   -4.9795    9.1448   -9.0156 O   0  0  0  0  0
   -2.9016    8.5421   -7.5089 O   0  0  0  0  0
   -4.2225   10.7169   -6.8671 O   0  0  0  0  0
   -2.6175   10.6004   -9.1116 O   0  0  0  0  0
   -5.5823    9.9956  -11.6266 O   0  0  0  0  0
   -5.7635    6.9197  -12.9068 O   0  0  0  0  0
   -2.6243    6.5974  -15.4433 O   0  0  0  0  0
   -4.2662    4.1309  -18.4707 O   0  0  0  0  0
   -7.1780    3.4618  -16.5684 O   0  0  0  0  0
   -7.4093   -0.6328  -16.6117 O   0  0  0  0  0
   -5.9476   -2.1502  -21.1182 O   0  0  0  0  0
   -8.4279   -4.4828  -22.0005 O   0  0  0  0  0
   -4.6483  -10.3341  -18.2124 N   0  0  0  0  0
   -5.4950  -12.4138  -17.8973 N   0  0  0  0  0
   -7.9132  -13.4529  -19.3187 N   0  0  0  0  0
   -7.9428  -11.2530  -20.3542 N   0  0  0  0  0
   -6.3037   -9.6065  -19.8361 N   0  0  0  0  0
   -5.0629   11.3734  -13.4569 N   0  0  0  0  0
   -4.9505   13.3825  -14.5001 N   0  0  0  0  0
   -2.5449   15.1670  -14.3865 N   0  0  0  0  0
   -1.6192   13.4037  -13.0043 N   0  0  0  0  0
   -2.8524   11.4382  -12.4697 N   0  0  0  0  0
   -3.1449    2.0655  -18.4016 N   0  0  0  0  0
   -1.5464    0.7649  -17.4521 N   0  0  0  0  0
    1.2392    0.5556  -18.5269 N   0  0  0  0  0
    0.4368    2.0848  -20.2217 N   0  0  0  0  0
   -1.7936    2.9035  -20.2211 N   0  0  0  0  0
   -4.0082   -3.4356  -20.8010 N   0  0  0  0  0
   -1.8275   -3.6528  -20.2525 N   0  0  0  0  0
   -0.8813   -4.3006  -17.4946 N   0  0  0  0  0
   -3.2419   -4.3074  -16.9492 N   0  0  0  0  0
   -4.9067   -3.8720  -18.5955 N   0  0  0  0  0
   -5.0008   -6.3827  -22.8314 P   0  0  0  0  0
   -7.7537   -0.4629  -18.2572 P   0  0  0  0  0
   -3.3773    7.6123  -16.5793 P   0  0  0  0  0
   -3.6560    9.7111   -8.1127 P   0  0  0  0  0
  1 46  1  0  0  0
  2  1  1  0  0  0
  2  3  1  0  0  0
  2 45  1  0  0  0
  3 43  1  0  0  0
  3  4  1  0  0  0
  4 44  1  0  0  0
  4  5  1  0  0  0
  5 45  1  0  0  0
  5 68  1  0  0  0
  7 69  1  0  0  0
  8 70  1  0  0  0
  8 71  1  0  0  0
  9 72  1  0  0  0
 10 68  1  0  0  0
 10  7  1  0  0  0
 11 49  1  0  0  0
 11 12  1  0  0  0
 12 13  1  0  0  0
 12 67  1  0  0  0
 13 14  1  0  0  0
 13 66  1  0  0  0
 14 50  1  0  0  0
 15 52  1  0  0  0
 16 52  1  0  0  0
 16 17  1  0  0  0
 17 18  1  0  0  0
 17 64  1  0  0  0
 18 19  1  0  0  0
 18 63  1  0  0  0
 19 53  1  0  0  0
 20 55  1  0  0  0
 21 55  1  0  0  0
 21 22  1  0  0  0
 22 23  1  0  0  0
 22 61  1  0  0  0
 23 24  1  0  0  0
 23 60  1  0  0  0
 24 56  1  0  0  0
 25 60  1  0  0  0
 25 73  1  0  0  0
 25 21  1  0  0  0
 27 74  1  0  0  0
 28 75  1  0  0  0
 28 76  1  0  0  0
 29 77  1  0  0  0
 30 73  1  0  0  0
 30 27  1  0  0  0
 31 63  1  0  0  0
 31 78  1  0  0  0
 31 16  1  0  0  0
 33 79  1  0  0  0
 34 80  1  0  0  0
 34 81  1  0  0  0
 35 82  1  0  0  0
 36 78  1  0  0  0
 36 33  1  0  0  0
 37 66  1  0  0  0
 37 83  1  0  0  0
 37 11  1  0  0  0
 39 84  1  0  0  0
 40 85  1  0  0  0
 40 86  1  0  0  0
 41 87  1  0  0  0
 42 83  1  0  0  0
 42 39  1  0  0  0
 68  6  1  0  0  0
 73 26  1  0  0  0
 78 32  1  0  0  0
 83 38  1  0  0  0
 88 46  1  0  0  0
 88 48  1  0  0  0
 88 49  1  0  0  0
 89 50  1  0  0  0
 89 15  1  0  0  0
 89 65  1  0  0  0
 90 53  1  0  0  0
 90 20  1  0  0  0
 90 62  1  0  0  0
 91 56  1  0  0  0
 91 58  1  0  0  0
 91 59  1  0  0  0
  6 69  2  0  0  0
  7  8  2  0  0  0
  9 71  2  0  0  0
 10 72  2  0  0  0
 26 74  2  0  0  0
 27 28  2  0  0  0
 29 76  2  0  0  0
 30 77  2  0  0  0
 32 79  2  0  0  0
 33 34  2  0  0  0
 35 81  2  0  0  0
 36 82  2  0  0  0
 38 84  2  0  0  0
 39 40  2  0  0  0
 41 86  2  0  0  0
 42 87  2  0  0  0
 88 47  2  0  0  0
 89 51  2  0  0  0
 90 54  2  0  0  0
 91 57  2  0  0  0
M  END
> <rmsd>
0.80889523

$$$$
CHEMBL3251375 PubChem-90655760


 53 58  0  0  0  0  0  0  0  0999 V2000
   -4.1300   -4.3987  -17.8702 O   0  0  0  0  0
   -7.4041   -1.7493  -16.4879 O   0  0  0  0  0
   -8.6244   -3.1821  -18.3268 O   0  0  0  0  0
   -9.1501   -0.5977  -18.3064 O   0  0  0  0  0
   -9.4069   -0.0165  -21.0826 O   0  0  0  0  0
   -5.0745   -3.2044  -24.4324 O   0  0  0  0  0
   -8.2400   -4.9481  -22.4789 O   0  0  0  0  0
  -12.4980    1.1280  -20.8722 O   0  0  0  0  0
  -12.2167    0.0653  -23.2265 O   0  0  0  0  0
  -10.0993   -2.3062  -16.3497 O   0  0  0  0  0
   -6.5491    0.6848  -16.3920 O   0  0  0  0  0
   -4.0262   -1.6261  -17.1244 O   0  0  0  0  0
   -4.9061   -5.7888  -19.9755 O   0  0  0  0  0
   -2.4716   -6.2937  -19.0645 O   0  0  0  0  0
   -4.2156   -8.2671  -18.8472 O   0  0  0  0  0
   -1.8935   -8.6303  -17.7186 O   0  0  0  0  0
   -3.7539   -6.9075  -16.6521 O   0  0  0  0  0
   -3.0910   -3.9649  -20.3950 O   0  0  0  0  0
   -5.1164   -3.4667  -18.2065 C   0  0  0  0  0
   -5.2044   -2.3961  -17.1329 C   0  0  0  0  0
   -6.3884   -1.4956  -17.4224 C   0  0  0  0  0
  -10.3034   -0.8873  -19.0341 C   0  0  0  0  0
  -10.4658    0.1263  -20.1568 C   0  0  0  0  0
   -9.9900   -0.0091  -22.3644 C   0  0  0  0  0
   -8.5905   -0.2277  -24.4147 C   0  0  0  0  0
   -7.9651   -0.9763  -25.3267 C   0  0  0  0  0
   -8.0064   -2.4762  -25.2235 C   0  0  0  0  0
   -6.8802   -3.1786  -26.0179 C   0  0  0  0  0
   -5.9400   -4.0351  -25.1525 C   0  0  0  0  0
   -7.7577   -4.3129  -23.4534 C   0  0  0  0  0
   -8.2500   -2.9793  -23.8164 C   0  0  0  0  0
   -8.8954   -2.2055  -22.9373 C   0  0  0  0  0
   -7.4696   -4.0328  -27.1341 C   0  0  0  0  0
   -8.0228   -3.1548  -28.2428 C   0  0  0  0  0
  -11.4071   -0.5144  -22.2470 C   0  0  0  0  0
  -11.8007   -0.0881  -20.8548 C   0  0  0  0  0
   -5.8240   -0.1000  -17.2919 C   0  0  0  0  0
   -4.4277   -0.3281  -16.7692 C   0  0  0  0  0
   -3.1422    0.8091  -18.6349 C   0  0  0  0  0
   -2.1092    2.3240  -17.5638 C   0  0  0  0  0
   -1.3409    3.3902  -17.1197 C   0  0  0  0  0
   -2.1297    2.9460  -14.9069 C   0  0  0  0  0
   -2.8474    1.6142  -16.6816 C   0  0  0  0  0
   -8.8138   -1.9952  -17.4042 P   0  0  0  0  0
   -3.6959   -5.1405  -19.3357 P   0  0  0  0  0
   -3.1262   -7.5337  -18.0961 P   0  0  0  0  0
   -9.2152   -0.8433  -23.2780 N   0  0  0  0  0
   -6.6941   -4.8774  -24.2265 N   0  0  0  0  0
   -3.5091    0.6541  -17.3319 N   0  0  0  0  0
   -2.2694    1.8417  -18.8126 N   0  0  0  0  0
   -0.5552    4.1659  -18.0216 N   0  0  0  0  0
   -1.3676    3.6823  -15.7829 N   0  0  0  0  0
   -2.8833    1.8966  -15.3549 N   0  0  0  0  0
 19  1  1  0  0  0
 20 19  1  0  0  0
 20 21  1  0  0  0
 20 12  1  0  0  0
 21  2  1  0  0  0
 21 37  1  0  0  0
 22  4  1  0  0  0
 23 22  1  0  0  0
 23  5  1  0  0  0
 24  5  1  0  0  0
 24 47  1  0  0  0
 24 35  1  0  0  0
 27 26  1  0  0  0
 27 28  1  0  0  0
 27 31  1  0  0  0
 28 29  1  0  0  0
 28 33  1  0  0  0
 29  6  1  0  0  0
 29 48  1  0  0  0
 30 31  1  0  0  0
 32 47  1  0  0  0
 33 34  1  0  0  0
 35 36  1  0  0  0
 35  9  1  0  0  0
 36  8  1  0  0  0
 36 23  1  0  0  0
 37 11  1  0  0  0
 37 38  1  0  0  0
 38 12  1  0  0  0
 38 49  1  0  0  0
 40 50  1  0  0  0
 41 51  1  0  0  0
 41 52  1  0  0  0
 42 53  1  0  0  0
 43 49  1  0  0  0
 43 40  1  0  0  0
 44  2  1  0  0  0
 44  4  1  0  0  0
 44 10  1  0  0  0
 45  1  1  0  0  0
 45 14  1  0  0  0
 45 18  1  0  0  0
 46 14  1  0  0  0
 46 16  1  0  0  0
 46 17  1  0  0  0
 47 25  1  0  0  0
 48 30  1  0  0  0
 49 39  1  0  0  0
 25 26  2  0  0  0
 30  7  2  0  0  0
 31 32  2  0  0  0
 39 50  2  0  0  0
 40 41  2  0  0  0
 42 52  2  0  0  0
 43 53  2  0  0  0
 44  3  2  0  0  0
 45 13  2  0  0  0
 46 15  2  0  0  0
M  END
> <rmsd>
0.718987525

$$$$
CHEMBL365498 PubChem-44395782


 54 58  0  0  0  0  0  0  0  0999 V2000
   -4.2289   -2.2896  -16.6295 C   0  0  0  0  0
   -6.2414   -1.6217  -17.0926 C   0  0  0  0  0
   -6.1179   -2.9188  -17.6074 C   0  0  0  0  0
   -4.8235   -3.3267  -17.3017 C   0  0  0  0  0
   -4.1247   -4.5171  -17.5338 C   0  0  0  0  0
   -2.7859   -4.5752  -17.0717 C   0  0  0  0  0
   -2.9084   -2.4100  -16.1740 C   0  0  0  0  0
   -2.0328   -5.7301  -17.2898 C   0  0  0  0  0
   -2.5939   -6.8360  -17.9525 C   0  0  0  0  0
   -3.9269   -6.7832  -18.3947 C   0  0  0  0  0
   -4.6848   -5.6224  -18.1811 C   0  0  0  0  0
   -5.8134   -7.9169  -19.5298 C   0  0  0  0  0
   -0.4830   -8.1209  -17.8012 C   0  0  0  0  0
   -7.1618   -3.7050  -18.2895 C   0  0  0  0  0
   -6.9671   -4.1575  -19.5987 C   0  0  0  0  0
   -7.9663   -4.8914  -20.2588 C   0  0  0  0  0
   -9.1767   -5.1618  -19.6010 C   0  0  0  0  0
   -9.3696   -4.7038  -18.2874 C   0  0  0  0  0
   -8.3681   -3.9800  -17.6362 C   0  0  0  0  0
  -11.4547   -6.1390  -19.7051 C   0  0  0  0  0
   -6.5765   -5.1533  -22.2937 C   0  0  0  0  0
   -7.4254   -0.7423  -17.2308 C   0  0  0  0  0
   -9.0117    0.9501  -19.3092 C   0  0  0  0  0
   -9.7402    2.2316  -18.9548 C   0  0  0  0  0
   -8.7728    3.2580  -18.3926 C   0  0  0  0  0
   -7.9032    3.8240  -19.5045 C   0  0  0  0  0
   -7.0240    4.9509  -18.9848 C   0  0  0  0  0
   -7.8442    6.2049  -18.7063 C   0  0  0  0  0
  -10.1268    6.7790  -19.8413 C   0  0  0  0  0
  -10.8587    5.5456  -20.2436 C   0  0  0  0  0
   -4.7673    0.0706  -15.9456 C   0  0  0  0  0
   -4.4416    1.0480  -17.0696 C   0  0  0  0  0
   -3.0098    0.9357  -17.4710 C   0  0  0  0  0
   -2.0067    1.4258  -16.6284 C   0  0  0  0  0
   -0.6535    1.3072  -16.9866 C   0  0  0  0  0
   -0.3086    0.6930  -18.2022 C   0  0  0  0  0
   -1.3227    0.2135  -19.0509 C   0  0  0  0  0
   -2.6669    0.3373  -18.6876 C   0  0  0  0  0
    1.4815   -0.0579  -19.7436 C   0  0  0  0  0
    0.0997    2.4129  -14.8999 C   0  0  0  0  0
   -5.0785   -1.2476  -16.4963 N   0  0  0  0  0
   -8.3992   -0.9949  -18.2478 N   0  0  0  0  0
   -9.4824   -0.1278  -18.4566 N   0  0  0  0  0
   -2.2417   -3.5400  -16.4218 O   0  0  0  0  0
   -2.3507   -1.4851  -15.5290 O   0  0  0  0  0
   -4.4781   -7.8945  -19.0423 O   0  0  0  0  0
   -1.8479   -7.9969  -18.1792 O   0  0  0  0  0
  -10.1720   -5.8817  -20.2711 O   0  0  0  0  0
   -7.7815   -5.3557  -21.5654 O   0  0  0  0  0
   -7.5725    0.2470  -16.4645 O   0  0  0  0  0
  -10.7065    7.6525  -19.2167 O   0  0  0  0  0
    1.0435    0.5698  -18.5445 O   0  0  0  0  0
    0.3625    1.7862  -16.1506 O   0  0  0  0  0
   -8.3942    6.9702  -20.2674 S   0  0  0  0  0
  1 41  1  0  0  0
  2 22  1  0  0  0
  3  4  1  0  0  0
  3 14  1  0  0  0
  4  5  1  0  0  0
  6 44  1  0  0  0
  6  8  1  0  0  0
  7 44  1  0  0  0
  7  1  1  0  0  0
  9 10  1  0  0  0
  9 47  1  0  0  0
 10 46  1  0  0  0
 11  5  1  0  0  0
 12 46  1  0  0  0
 13 47  1  0  0  0
 15 16  1  0  0  0
 16 49  1  0  0  0
 17 18  1  0  0  0
 17 48  1  0  0  0
 19 14  1  0  0  0
 20 48  1  0  0  0
 21 49  1  0  0  0
 22 42  1  0  0  0
 23 43  1  0  0  0
 23 24  1  0  0  0
 24 25  1  0  0  0
 25 26  1  0  0  0
 26 27  1  0  0  0
 27 28  1  0  0  0
 28 54  1  0  0  0
 29 54  1  0  0  0
 30 29  1  0  0  0
 31 41  1  0  0  0
 31 32  1  0  0  0
 32 33  1  0  0  0
 34 35  1  0  0  0
 35 53  1  0  0  0
 36 37  1  0  0  0
 36 52  1  0  0  0
 38 33  1  0  0  0
 39 52  1  0  0  0
 40 53  1  0  0  0
 41  2  1  0  0  0
 42 43  1  0  0  0
  2  3  2  0  0  0
  4  1  2  0  0  0
  5  6  2  0  0  0
  7 45  2  0  0  0
  8  9  2  0  0  0
 10 11  2  0  0  0
 14 15  2  0  0  0
 16 17  2  0  0  0
 18 19  2  0  0  0
 22 50  2  0  0  0
 29 51  2  0  0  0
 33 34  2  0  0  0
 35 36  2  0  0  0
 37 38  2  0  0  0
M  END
> <rmsd>
0.623928964

$$$$
CHEMBL4060094 PubChem-137637957


 60 65  0  0  0  0  0  0  0  0999 V2000
   -2.5356   -6.9489  -20.5253 O   0  0  0  0  0
   -1.8699   -8.2658  -18.3869 O   0  0  0  0  0
   -3.4816   -6.4311  -18.1574 O   0  0  0  0  0
   -4.3072   -8.6668  -19.2656 O   0  0  0  0  0
   -9.5074   -6.3211  -22.2174 O   0  0  0  0  0
   -8.6161   -9.9631  -20.8015 O   0  0  0  0  0
  -13.4604  -14.1056  -21.7091 O   0  0  0  0  0
  -15.6559  -15.3709  -22.3887 O   0  0  0  0  0
  -15.8072  -12.9527  -22.0189 O   0  0  0  0  0
  -14.6476  -13.7935  -24.1905 O   0  0  0  0  0
   -7.2095   -5.3788  -21.4004 O   0  0  0  0  0
   -2.8127   -2.5966  -19.6411 O   0  0  0  0  0
   -0.6855   -1.2409  -18.9439 O   0  0  0  0  0
   -2.9465    1.6776  -17.3871 O   0  0  0  0  0
   -7.0429   -0.5453  -18.4958 O   0  0  0  0  0
   -9.4810    0.3353  -18.0983 O   0  0  0  0  0
   -7.7579    0.9851  -16.4807 O   0  0  0  0  0
   -7.7360    2.1151  -18.8229 O   0  0  0  0  0
    0.6242    6.3650  -14.8113 O   0  0  0  0  0
    2.7673    5.5159  -13.5507 O   0  0  0  0  0
    2.5038    7.9315  -13.8695 O   0  0  0  0  0
    3.1613    6.4906  -15.9297 O   0  0  0  0  0
   -3.0250   -7.5591  -19.0385 S   0  0  0  0  0
  -14.9443  -14.0586  -22.5579 S   0  0  0  0  0
   -8.0400    0.7240  -17.9328 S   0  0  0  0  0
    2.2905    6.5824  -14.4952 S   0  0  0  0  0
   -5.5158   -8.3238  -19.8793 C   0  0  0  0  0
   -5.7679   -7.0227  -20.3292 C   0  0  0  0  0
   -6.9779   -6.6903  -20.9595 C   0  0  0  0  0
   -7.9602   -7.6932  -21.1385 C   0  0  0  0  0
   -9.2024   -7.4549  -21.7614 C   0  0  0  0  0
  -10.1205   -8.4947  -21.8797 C   0  0  0  0  0
   -9.7991   -9.7621  -21.3790 C   0  0  0  0  0
   -7.7053   -9.0048  -20.6656 C   0  0  0  0  0
   -6.4903   -9.3063  -20.0471 C   0  0  0  0  0
  -10.7600  -10.8791  -21.4804 C   0  0  0  0  0
  -11.9841  -10.7224  -22.1487 C   0  0  0  0  0
  -12.8854  -11.7863  -22.2332 C   0  0  0  0  0
  -12.5775  -13.0233  -21.6477 C   0  0  0  0  0
  -11.3585  -13.1820  -20.9819 C   0  0  0  0  0
  -10.4548  -12.1184  -20.9001 C   0  0  0  0  0
   -6.3291   -4.2924  -21.1318 C   0  0  0  0  0
   -5.0853   -4.3782  -22.0034 C   0  0  0  0  0
   -4.0797   -3.3268  -21.5713 C   0  0  0  0  0
   -3.4460   -3.7201  -20.2452 C   0  0  0  0  0
   -3.5181   -1.5282  -19.0665 C   0  0  0  0  0
   -2.8263   -0.4305  -18.4993 C   0  0  0  0  0
   -1.4200   -0.3391  -18.4602 C   0  0  0  0  0
   -0.8201    0.7717  -17.8712 C   0  0  0  0  0
   -1.6210    1.7847  -17.3309 C   0  0  0  0  0
   -3.5663    0.6363  -17.9326 C   0  0  0  0  0
   -4.9607    0.6033  -17.9354 C   0  0  0  0  0
   -5.6464   -0.4840  -18.4876 C   0  0  0  0  0
   -4.9227   -1.5386  -19.0436 C   0  0  0  0  0
   -1.0148    2.9699  -16.6914 C   0  0  0  0  0
    0.3743    3.0709  -16.5162 C   0  0  0  0  0
    0.9292    4.1920  -15.8935 C   0  0  0  0  0
    0.1030    5.2301  -15.4385 C   0  0  0  0  0
   -1.2797    5.1316  -15.6144 C   0  0  0  0  0
   -1.8355    4.0094  -16.2341 C   0  0  0  0  0
 23  1  1  0  0  0
 23  4  1  0  0  0
 24  7  1  0  0  0
 24 10  1  0  0  0
 25 15  1  0  0  0
 25 18  1  0  0  0
 26 19  1  0  0  0
 26 22  1  0  0  0
 27  4  1  0  0  0
 28 29  1  0  0  0
 29 11  1  0  0  0
 30 31  1  0  0  0
 31 32  1  0  0  0
 33  6  1  0  0  0
 33 36  1  0  0  0
 34  6  1  0  0  0
 34 30  1  0  0  0
 35 27  1  0  0  0
 37 38  1  0  0  0
 39 40  1  0  0  0
 39  7  1  0  0  0
 41 36  1  0  0  0
 42 11  1  0  0  0
 42 43  1  0  0  0
 43 44  1  0  0  0
 44 45  1  0  0  0
 45 12  1  0  0  0
 46 12  1  0  0  0
 47 48  1  0  0  0
 48 49  1  0  0  0
 50 14  1  0  0  0
 50 55  1  0  0  0
 51 14  1  0  0  0
 51 47  1  0  0  0
 52 53  1  0  0  0
 53 15  1  0  0  0
 54 46  1  0  0  0
 56 57  1  0  0  0
 58 59  1  0  0  0
 58 19  1  0  0  0
 60 55  1  0  0  0
 23  2  2  0  0  0
 23  3  2  0  0  0
 24  8  2  0  0  0
 24  9  2  0  0  0
 25 16  2  0  0  0
 25 17  2  0  0  0
 26 20  2  0  0  0
 26 21  2  0  0  0
 27 28  2  0  0  0
 29 30  2  0  0  0
 31  5  2  0  0  0
 32 33  2  0  0  0
 34 35  2  0  0  0
 36 37  2  0  0  0
 38 39  2  0  0  0
 40 41  2  0  0  0
 46 47  2  0  0  0
 48 13  2  0  0  0
 49 50  2  0  0  0
 51 52  2  0  0  0
 53 54  2  0  0  0
 55 56  2  0  0  0
 57 58  2  0  0  0
 59 60  2  0  0  0
M  CHG  4   1  -1  10  -1  18  -1  22  -1
M  END
> <rmsd>
0.829007089

$$$$
CHEMBL308715 PubChem-44311307 PubChem-91932896


 52 55  0  0  0  0  0  0  0  0999 V2000
   -5.6571    0.0040  -14.0007 O   0  0  0  0  0
   -2.2854   -2.9729  -14.5065 O   0  0  0  0  0
   -5.4772   -3.3870  -15.8334 O   0  0  0  0  0
   -7.3546   -2.7576  -16.9876 O   0  0  0  0  0
   -6.6504   -1.0816  -18.9002 O   0  0  0  0  0
   -7.0920   -0.1780  -16.6564 O   0  0  0  0  0
   -9.1055   -0.9642  -18.0858 O   0  0  0  0  0
   -6.0491   -4.0070  -19.3523 O   0  0  0  0  0
   -8.6557   -4.1833  -19.4248 O   0  0  0  0  0
   -7.3966   -4.7248  -21.4527 O   0  0  0  0  0
   -7.3620   -6.4407  -19.5120 O   0  0  0  0  0
   -4.8462   -6.2657  -17.0016 O   0  0  0  0  0
   -2.6279   -7.5177  -17.5725 O   0  0  0  0  0
   -4.6429   -8.8476  -17.1716 O   0  0  0  0  0
   -4.4654   -7.5653  -19.4186 O   0  0  0  0  0
   -3.1580   -3.2779  -18.1285 O   0  0  0  0  0
   -1.2398   -2.7903  -19.8104 O   0  0  0  0  0
   -0.6323   -3.7416  -17.6376 O   0  0  0  0  0
   -1.7595   -5.2934  -19.4015 O   0  0  0  0  0
   -4.5491   -0.1857  -13.4295 C   0  0  0  0  0
   -5.6276   -0.0664  -11.1376 C   0  0  0  0  0
   -5.2697   -0.4403   -9.6970 C   0  0  0  0  0
   -4.2895    0.5652   -9.0898 C   0  0  0  0  0
   -4.8724    1.9746   -9.1477 C   0  0  0  0  0
   -5.1678    2.3582  -10.5925 C   0  0  0  0  0
   -6.1579    1.3712  -11.2073 C   0  0  0  0  0
   -3.2922   -0.3181  -14.2351 C   0  0  0  0  0
   -2.6435    0.9983  -14.5571 C   0  0  0  0  0
   -1.2508    1.1031  -14.4788 C   0  0  0  0  0
   -0.6142    2.3008  -14.8145 C   0  0  0  0  0
   -1.3682    3.3995  -15.2344 C   0  0  0  0  0
   -2.7591    3.3008  -15.3186 C   0  0  0  0  0
   -3.3964    2.1036  -14.9833 C   0  0  0  0  0
   -4.0692   -0.6779  -16.6448 C   0  0  0  0  0
   -3.0580   -0.0018  -17.5193 C   0  0  0  0  0
   -1.7212   -0.4241  -17.5577 C   0  0  0  0  0
   -0.8030    0.2220  -18.3902 C   0  0  0  0  0
   -1.2195    1.2855  -19.1959 C   0  0  0  0  0
   -2.5545    1.6995  -19.1715 C   0  0  0  0  0
   -3.4723    1.0540  -18.3376 C   0  0  0  0  0
   -3.2250   -2.5892  -15.2519 C   0  0  0  0  0
   -4.0793   -3.6321  -15.9134 C   0  0  0  0  0
   -6.0144   -3.1389  -17.1147 C   0  0  0  0  0
   -5.9316   -4.3870  -18.0121 C   0  0  0  0  0
   -4.6180   -5.1540  -17.8203 C   0  0  0  0  0
   -3.5337   -4.2650  -17.2091 C   0  0  0  0  0
   -4.4686   -0.2379  -12.0042 N   0  0  0  0  0
   -3.4759   -1.1843  -15.4063 N   0  0  0  0  0
   -7.4986   -1.2159  -17.6639 S   0  0  0  0  0
   -7.4009   -4.8190  -19.9528 S   0  0  0  0  0
   -4.1162   -7.5763  -17.7729 S   0  0  0  0  0
   -1.6584   -3.7533  -18.7364 S   0  0  0  0  0
 20 47  1  0  0  0
 21 47  1  0  0  0
 21 22  1  0  0  0
 22 23  1  0  0  0
 23 24  1  0  0  0
 24 25  1  0  0  0
 25 26  1  0  0  0
 26 21  1  0  0  0
 27 20  1  0  0  0
 27 28  1  0  0  0
 27 48  1  0  0  0
 29 30  1  0  0  0
 31 32  1  0  0  0
 33 28  1  0  0  0
 34 48  1  0  0  0
 34 35  1  0  0  0
 36 37  1  0  0  0
 38 39  1  0  0  0
 40 35  1  0  0  0
 42 41  1  0  0  0
 42  3  1  0  0  0
 43  3  1  0  0  0
 43  4  1  0  0  0
 43 44  1  0  0  0
 44  8  1  0  0  0
 44 45  1  0  0  0
 45 12  1  0  0  0
 45 46  1  0  0  0
 46 16  1  0  0  0
 46 42  1  0  0  0
 48 41  1  0  0  0
 49  4  1  0  0  0
 49  7  1  0  0  0
 50  8  1  0  0  0
 50 11  1  0  0  0
 51 12  1  0  0  0
 51 15  1  0  0  0
 52 16  1  0  0  0
 52 19  1  0  0  0
 20  1  2  0  0  0
 28 29  2  0  0  0
 30 31  2  0  0  0
 32 33  2  0  0  0
 35 36  2  0  0  0
 37 38  2  0  0  0
 39 40  2  0  0  0
 41  2  2  0  0  0
 49  5  2  0  0  0
 49  6  2  0  0  0
 50  9  2  0  0  0
 50 10  2  0  0  0
 51 13  2  0  0  0
 51 14  2  0  0  0
 52 17  2  0  0  0
 52 18  2  0  0  0
M  CHG  4   7  -1  11  -1  15  -1  19  -1
M  END
> <rmsd>
0.662091255

$$$$
CHEMBL4596142 PubChem-122572967 PubChem-122572968


 79 84  0  0  0  0  0  0  0  0999 V2000
   -5.2968   11.0571   -9.5931 C   0  0  0  0  0
   -5.6641   11.8422   -8.5001 C   0  0  0  0  0
   -5.7038   11.2945   -7.2092 C   0  0  0  0  0
   -5.3937    9.9418   -7.0240 C   0  0  0  0  0
   -5.0152    9.1586   -8.1281 C   0  0  0  0  0
   -4.9532    9.7130   -9.4064 C   0  0  0  0  0
   -4.5491    8.8789  -10.5477 C   0  0  0  0  0
   -3.4283    9.2057  -11.3249 C   0  0  0  0  0
   -3.0780    8.3729  -12.3963 C   0  0  0  0  0
   -3.8555    7.2294  -12.6741 C   0  0  0  0  0
   -3.5816    6.3393  -13.7403 C   0  0  0  0  0
   -4.4398    5.2467  -13.9632 C   0  0  0  0  0
   -5.5369    5.0086  -13.1416 C   0  0  0  0  0
   -5.7969    5.8812  -12.0813 C   0  0  0  0  0
   -4.9746    6.9825  -11.8446 C   0  0  0  0  0
   -2.2092    5.7505  -15.7185 C   0  0  0  0  0
   -3.0681    6.2336  -16.8739 C   0  0  0  0  0
   -2.7387    5.4238  -18.1110 C   0  0  0  0  0
   -2.6259    2.9483  -18.0264 C   0  0  0  0  0
   -3.2624    1.7058  -18.2690 C   0  0  0  0  0
   -2.4902    0.5218  -18.2849 C   0  0  0  0  0
   -1.1167    0.5759  -18.0492 C   0  0  0  0  0
   -0.4992    1.7894  -17.7666 C   0  0  0  0  0
   -1.2497    2.9685  -17.7631 C   0  0  0  0  0
   -4.3590   -0.8096  -18.7493 C   0  0  0  0  0
   -5.2116    0.3178  -18.7172 C   0  0  0  0  0
   -4.6498    1.5831  -18.4942 C   0  0  0  0  0
   -4.8562   -2.1859  -18.9890 C   0  0  0  0  0
   -4.0557   -3.2808  -18.6293 C   0  0  0  0  0
   -4.4833   -4.6028  -18.8223 C   0  0  0  0  0
   -5.7562   -4.8296  -19.4077 C   0  0  0  0  0
   -6.5459   -3.7330  -19.7793 C   0  0  0  0  0
   -6.1027   -2.4303  -19.5739 C   0  0  0  0  0
   -2.0591    8.6528  -13.0936 O   0  0  0  0  0
   -5.2638    7.7946  -10.8339 O   0  0  0  0  0
   -6.3468    3.8999  -13.3991 O   0  0  0  0  0
   -8.7211    4.7070  -12.6070 O   0  0  0  0  0
   -7.4340    3.2698  -11.0962 O   0  0  0  0  0
   -8.5014    2.1785  -13.1843 O   0  0  0  0  0
   -2.4708    6.5405  -14.5698 O   0  0  0  0  0
   -3.3582    4.1446  -18.0408 O   0  0  0  0  0
    0.8663    1.8051  -17.4984 O   0  0  0  0  0
    3.0368    2.7304  -16.3507 O   0  0  0  0  0
    1.0528    4.1748  -16.3297 O   0  0  0  0  0
    1.0782    2.0937  -14.7606 O   0  0  0  0  0
   -3.0564   -0.6543  -18.5228 O   0  0  0  0  0
   -5.3983    2.5997  -18.5022 O   0  0  0  0  0
   -6.5887    0.1750  -18.9045 O   0  0  0  0  0
   -9.0133   -0.1304  -17.9963 O   0  0  0  0  0
   -7.2026    0.0288  -16.3516 O   0  0  0  0  0
   -7.9618    2.2037  -17.5680 O   0  0  0  0  0
   -6.2276   -6.1271  -19.6267 O   0  0  0  0  0
   -7.7094   -6.0085  -21.7971 O   0  0  0  0  0
   -7.9659   -7.9640  -20.3434 O   0  0  0  0  0
   -8.9641   -5.7039  -19.5367 O   0  0  0  0  0
   -3.5957   -5.6206  -18.4249 O   0  0  0  0  0
   -5.1479   -7.4556  -17.3631 O   0  0  0  0  0
   -2.7672   -7.9703  -17.6228 O   0  0  0  0  0
   -4.2533   -7.9782  -19.7513 O   0  0  0  0  0
   -2.6686   10.3350  -11.0269 O   0  0  0  0  0
   -0.2069    9.4259  -10.9097 O   0  0  0  0  0
   -0.6972   11.5657   -9.7997 O   0  0  0  0  0
   -1.5503    9.3791   -8.6804 O   0  0  0  0  0
   -5.4686    9.3981   -5.7370 O   0  0  0  0  0
   -3.4682    7.7430   -5.3217 O   0  0  0  0  0
   -5.5167    6.8246   -6.3323 O   0  0  0  0  0
   -5.5510    7.4241   -3.7940 O   0  0  0  0  0
   -6.0463   12.0762   -6.1007 O   0  0  0  0  0
   -7.6228   13.9783   -7.0091 O   0  0  0  0  0
   -6.5883   14.2937   -4.8096 O   0  0  0  0  0
   -5.0848   14.5397   -6.9192 O   0  0  0  0  0
   -7.7741    3.5414  -12.5307 S   0  0  0  0  0
    1.5362    2.7539  -16.2406 S   0  0  0  0  0
   -7.7157    0.5409  -17.6709 S   0  0  0  0  0
   -7.7278   -6.4780  -20.3707 S   0  0  0  0  0
   -3.9484   -7.2850  -18.2533 S   0  0  0  0  0
   -1.2284   10.1952  -10.1164 S   0  0  0  0  0
   -4.9736    7.8123   -5.3335 S   0  0  0  0  0
   -6.3794   13.7476   -6.1947 S   0  0  0  0  0
  2  3  1  0  0  0
  3 68  1  0  0  0
  4  5  1  0  0  0
  4 64  1  0  0  0
  6  7  1  0  0  0
  6  1  1  0  0  0
  7 35  1  0  0  0
  8  9  1  0  0  0
  8 60  1  0  0  0
  9 10  1  0  0  0
 11 12  1  0  0  0
 11 40  1  0  0  0
 13 14  1  0  0  0
 13 36  1  0  0  0
 15 35  1  0  0  0
 15 10  1  0  0  0
 16 40  1  0  0  0
 16 17  1  0  0  0
 17 18  1  0  0  0
 18 41  1  0  0  0
 19 41  1  0  0  0
 20 21  1  0  0  0
 21 46  1  0  0  0
 22 23  1  0  0  0
 23 42  1  0  0  0
 24 19  1  0  0  0
 25 46  1  0  0  0
 25 28  1  0  0  0
 26 27  1  0  0  0
 26 48  1  0  0  0
 27 20  1  0  0  0
 29 30  1  0  0  0
 30 56  1  0  0  0
 31 32  1  0  0  0
 31 52  1  0  0  0
 33 28  1  0  0  0
 72 36  1  0  0  0
 72 39  1  0  0  0
 73 42  1  0  0  0
 73 45  1  0  0  0
 74 48  1  0  0  0
 74 51  1  0  0  0
 75 52  1  0  0  0
 75 55  1  0  0  0
 76 56  1  0  0  0
 76 59  1  0  0  0
 77 60  1  0  0  0
 77 63  1  0  0  0
 78 64  1  0  0  0
 78 67  1  0  0  0
 79 68  1  0  0  0
 79 71  1  0  0  0
  1  2  2  0  0  0
  3  4  2  0  0  0
  5  6  2  0  0  0
  7  8  2  0  0  0
  9 34  2  0  0  0
 10 11  2  0  0  0
 12 13  2  0  0  0
 14 15  2  0  0  0
 19 20  2  0  0  0
 21 22  2  0  0  0
 23 24  2  0  0  0
 25 26  2  0  0  0
 27 47  2  0  0  0
 28 29  2  0  0  0
 30 31  2  0  0  0
 32 33  2  0  0  0
 72 37  2  0  0  0
 72 38  2  0  0  0
 73 43  2  0  0  0
 73 44  2  0  0  0
 74 49  2  0  0  0
 74 50  2  0  0  0
 75 53  2  0  0  0
 75 54  2  0  0  0
 76 57  2  0  0  0
 76 58  2  0  0  0
 77 61  2  0  0  0
 77 62  2  0  0  0
 78 65  2  0  0  0
 78 66  2  0  0  0
 79 69  2  0  0  0
 79 70  2  0  0  0
M  END
> <rmsd>
0.601583421

$$$$
CHEMBL1185297 CHEMBL405871 PubChem-15661218 PubChem-44284048


 74 80  0  0  0  0  0  0  0  0999 V2000
   -3.4066   -6.5584  -21.4178 C   0  0  0  0  0
   -4.2745   -5.3771  -21.9535 C   0  0  0  0  0
   -3.5516   -4.3725  -22.8944 C   0  0  0  0  0
   -2.1776   -3.9465  -22.4321 C   0  0  0  0  0
   -1.7477   -4.5703  -21.0987 C   0  0  0  0  0
   -1.9773   -6.0826  -21.0305 C   0  0  0  0  0
    0.2707   -7.0974  -21.0919 C   0  0  0  0  0
    1.3016   -7.8758  -21.8372 C   0  0  0  0  0
    2.8906   -7.4941  -23.5044 C   0  0  0  0  0
    0.7311   -8.1581  -24.0902 C   0  0  0  0  0
   -2.7926   -4.9999  -24.0376 C   0  0  0  0  0
   -4.0597   -2.2440  -24.1728 C   0  0  0  0  0
   -5.1323   -1.3415  -24.6674 C   0  0  0  0  0
   -5.7434   -5.7327  -22.3227 C   0  0  0  0  0
   -6.8056   -5.0679  -21.3921 C   0  0  0  0  0
   -6.7806   -5.7258  -19.9776 C   0  0  0  0  0
   -5.4726   -5.3139  -19.3001 C   0  0  0  0  0
   -5.1595   -3.9943  -19.2658 C   0  0  0  0  0
   -6.0210   -2.9906  -19.9892 C   0  0  0  0  0
   -6.5527   -3.5377  -21.3305 C   0  0  0  0  0
   -7.3226   -1.2736  -18.7431 C   0  0  0  0  0
   -6.1944   -0.3553  -18.3344 C   0  0  0  0  0
   -5.0608   -0.2299  -19.3561 C   0  0  0  0  0
   -4.6904    0.7017  -21.6976 C   0  0  0  0  0
   -5.2062    1.4982  -22.8242 C   0  0  0  0  0
   -6.5647    1.8402  -22.8819 C   0  0  0  0  0
   -7.0623    2.6003  -23.9462 C   0  0  0  0  0
   -6.2004    3.0205  -24.9615 C   0  0  0  0  0
   -4.8453    2.6836  -24.9123 C   0  0  0  0  0
   -4.3501    1.9270  -23.8464 C   0  0  0  0  0
   -3.8861    0.4722  -18.7334 C   0  0  0  0  0
   -3.8816    1.8643  -18.5534 C   0  0  0  0  0
   -2.7752    2.4945  -17.9789 C   0  0  0  0  0
   -1.6723    1.7389  -17.5717 C   0  0  0  0  0
   -1.6745    0.3516  -17.7442 C   0  0  0  0  0
   -2.7759   -0.2815  -18.3269 C   0  0  0  0  0
   -6.9047    1.3494  -16.6898 C   0  0  0  0  0
   -7.4620    2.7081  -16.4300 C   0  0  0  0  0
   -8.5908    3.6556  -18.2468 C   0  0  0  0  0
   -9.5859    3.6121  -16.1453 C   0  0  0  0  0
   -3.8722   -3.5066  -18.6845 C   0  0  0  0  0
   -4.4022   -6.3231  -18.9575 C   0  0  0  0  0
   -4.0107   -7.1744  -20.1573 C   0  0  0  0  0
   -3.9047   -7.6806  -16.9553 C   0  0  0  0  0
   -4.3998   -8.5397  -15.8436 C   0  0  0  0  0
   -7.9519   -5.2596  -19.1234 C   0  0  0  0  0
   -6.9682   -7.2396  -20.0886 C   0  0  0  0  0
   -6.4048   -6.4178  -24.6080 C   0  0  0  0  0
   -6.8388   -6.0114  -25.9554 C   0  0  0  0  0
   -7.0943   -6.9719  -26.9483 C   0  0  0  0  0
   -7.5204   -6.5747  -28.2242 C   0  0  0  0  0
   -7.6877   -5.2184  -28.5210 C   0  0  0  0  0
   -7.4316   -4.2570  -27.5386 C   0  0  0  0  0
   -7.0068   -4.6513  -26.2575 C   0  0  0  0  0
   -3.3396   -7.6221  -22.5208 C   0  0  0  0  0
   -0.9398   -6.7826  -21.7105 O   0  0  0  0  0
    0.4928   -6.7568  -19.8997 O   0  0  0  0  0
   -1.5465   -4.5814  -23.5219 O   0  0  0  0  0
   -4.3906   -3.2766  -23.2904 O   0  0  0  0  0
   -2.8764   -2.0706  -24.5690 O   0  0  0  0  0
   -7.1195   -2.5844  -19.1829 O   0  0  0  0  0
   -8.5079   -0.8939  -18.5566 O   0  0  0  0  0
   -3.5144    0.2445  -21.7271 O   0  0  0  0  0
   -6.7067    0.9342  -18.0063 O   0  0  0  0  0
   -6.6282    0.5896  -15.7232 O   0  0  0  0  0
   -4.1714   -8.3871  -20.0907 O   0  0  0  0  0
   -4.8161   -7.1208  -17.8518 O   0  0  0  0  0
   -2.6681   -7.4649  -17.0706 O   0  0  0  0  0
   -8.0709   -5.2601  -21.9575 O   0  0  0  0  0
   -6.0249   -5.4387  -23.6882 O   0  0  0  0  0
   -6.3948   -7.6383  -24.2804 O   0  0  0  0  0
    1.4866   -7.3216  -23.1687 N   0  0  0  0  0
   -5.5222    0.4666  -20.5572 N   0  0  0  0  0
   -8.7691    2.8387  -17.0569 N   0  0  0  0  0
  1  2  1  0  0  0
  1 55  1  0  0  0
  1 43  1  0  0  0
  2  3  1  0  0  0
  2 14  1  0  0  0
  3  4  1  0  0  0
  3 59  1  0  0  0
  4  5  1  0  0  0
  4 58  1  0  0  0
  5  6  1  0  0  0
  6 56  1  0  0  0
  6  1  1  0  0  0
  7 56  1  0  0  0
  8  7  1  0  0  0
  8 72  1  0  0  0
  9 72  1  0  0  0
 10 72  1  0  0  0
 11 58  1  0  0  0
 11  3  1  0  0  0
 12 59  1  0  0  0
 13 12  1  0  0  0
 14 15  1  0  0  0
 14 70  1  0  0  0
 15 16  1  0  0  0
 15 69  1  0  0  0
 16 17  1  0  0  0
 16 46  1  0  0  0
 16 47  1  0  0  0
 19 18  1  0  0  0
 19 20  1  0  0  0
 19 61  1  0  0  0
 20 15  1  0  0  0
 21 61  1  0  0  0
 22 21  1  0  0  0
 22 23  1  0  0  0
 22 64  1  0  0  0
 23 73  1  0  0  0
 23 31  1  0  0  0
 24 25  1  0  0  0
 26 27  1  0  0  0
 28 29  1  0  0  0
 30 25  1  0  0  0
 32 33  1  0  0  0
 34 35  1  0  0  0
 36 31  1  0  0  0
 37 64  1  0  0  0
 38 37  1  0  0  0
 38 74  1  0  0  0
 39 74  1  0  0  0
 40 74  1  0  0  0
 41 18  1  0  0  0
 42 17  1  0  0  0
 42 43  1  0  0  0
 42 67  1  0  0  0
 44 67  1  0  0  0
 45 44  1  0  0  0
 48 70  1  0  0  0
 48 49  1  0  0  0
 50 51  1  0  0  0
 52 53  1  0  0  0
 54 49  1  0  0  0
 73 24  1  0  0  0
  7 57  2  0  0  0
 12 60  2  0  0  0
 17 18  2  0  0  0
 21 62  2  0  0  0
 24 63  2  0  0  0
 25 26  2  0  0  0
 27 28  2  0  0  0
 29 30  2  0  0  0
 31 32  2  0  0  0
 33 34  2  0  0  0
 35 36  2  0  0  0
 37 65  2  0  0  0
 43 66  2  0  0  0
 44 68  2  0  0  0
 48 71  2  0  0  0
 49 50  2  0  0  0
 51 52  2  0  0  0
 53 54  2  0  0  0
M  END
> <rmsd>
0.704425097

$$$$
CHEMBL1651410 PubChem-53321765


 67 71  0  0  0  0  0  0  0  0999 V2000
    5.0966    3.1716  -19.8869 C   0  0  0  0  0
    3.1731    3.9821  -18.5120 C   0  0  0  0  0
    2.6654    5.0520  -17.7652 C   0  0  0  0  0
    1.3921    4.9876  -17.1961 C   0  0  0  0  0
    0.6022    3.8491  -17.3692 C   0  0  0  0  0
   -0.7515    3.7937  -16.7261 C   0  0  0  0  0
   -0.7100    3.0801  -15.3709 C   0  0  0  0  0
   -0.6852    1.5948  -15.5534 C   0  0  0  0  0
   -1.5014    0.9894  -16.6257 C   0  0  0  0  0
   -1.7827   -0.3898  -16.6831 C   0  0  0  0  0
   -2.5710   -0.8956  -17.7192 C   0  0  0  0  0
   -3.0845   -0.0432  -18.7068 C   0  0  0  0  0
   -4.2913   -1.8865  -19.8306 C   0  0  0  0  0
   -4.3636   -3.7175  -21.1354 C   0  0  0  0  0
   -3.9315   -4.2881  -22.4801 C   0  0  0  0  0
   -2.3285   -5.8084  -22.2421 C   0  0  0  0  0
   -0.3815   -6.1960  -23.3982 C   0  0  0  0  0
    0.0362   -4.7532  -23.6475 C   0  0  0  0  0
    0.2758   -6.7665  -22.1232 C   0  0  0  0  0
   -0.7149   -7.4909  -21.2036 C   0  0  0  0  0
   -2.0121   -6.6771  -21.0158 C   0  0  0  0  0
   -5.8162   -4.0851  -20.7836 C   0  0  0  0  0
   -6.1297   -3.5063  -19.3983 C   0  0  0  0  0
   -5.7280   -2.0309  -19.3135 C   0  0  0  0  0
   -2.8001    1.3229  -18.6521 C   0  0  0  0  0
   -2.0104    1.8421  -17.6235 C   0  0  0  0  0
    1.1034    2.7675  -18.1050 C   0  0  0  0  0
    2.3759    2.8239  -18.6794 C   0  0  0  0  0
    4.4585    4.1277  -19.0529 O   0  0  0  0  0
    0.0532    0.8929  -14.8141 O   0  0  0  0  0
   -1.2970   -1.2657  -15.7193 O   0  0  0  0  0
   -3.8715   -0.5303  -19.7542 O   0  0  0  0  0
   -4.2265   -2.3203  -21.1644 O   0  0  0  0  0
   -3.7115   -5.6659  -22.3775 O   0  0  0  0  0
   -1.7884   -6.3588  -23.4226 O   0  0  0  0  0
    1.4586   -7.5051  -22.3607 O   0  0  0  0  0
    2.2190   -9.8313  -23.2557 O   0  0  0  0  0
   -0.1751   -9.3596  -23.3341 O   0  0  0  0  0
    1.3710   -8.1572  -25.0411 O   0  0  0  0  0
   -0.1172   -7.7772  -19.9690 O   0  0  0  0  0
    0.5337  -10.2509  -20.5146 O   0  0  0  0  0
   -1.8161   -9.7891  -19.9629 O   0  0  0  0  0
   -0.0731   -9.7272  -18.0507 O   0  0  0  0  0
   -1.9332   -5.8510  -19.8869 O   0  0  0  0  0
   -2.3035   -7.2848  -17.7404 O   0  0  0  0  0
   -3.7066   -5.3066  -18.0649 O   0  0  0  0  0
   -4.2188   -7.4062  -19.4915 O   0  0  0  0  0
   -5.9670   -5.4744  -20.7440 O   0  0  0  0  0
   -8.5146   -5.3375  -21.3215 O   0  0  0  0  0
   -7.2784   -7.3477  -21.9703 O   0  0  0  0  0
   -6.8757   -5.1853  -23.3408 O   0  0  0  0  0
   -7.4885   -3.6517  -19.1050 O   0  0  0  0  0
   -8.9611   -4.6045  -17.1876 O   0  0  0  0  0
   -7.2255   -6.0574  -18.1189 O   0  0  0  0  0
   -6.4979   -4.1082  -16.5575 O   0  0  0  0  0
   -5.8114   -1.6005  -17.9841 O   0  0  0  0  0
   -7.3495   -0.0814  -16.5414 O   0  0  0  0  0
   -8.1412   -0.6666  -18.7817 O   0  0  0  0  0
   -6.2069    1.0642  -18.5712 O   0  0  0  0  0
   -1.7270    3.2148  -17.6017 O   0  0  0  0  0
    2.8244    1.7248  -19.4009 O   0  0  0  0  0
    1.1938   -8.7576  -23.4827 S   0  0  0  0  0
   -0.3878   -9.4182  -19.6699 S   0  0  0  0  0
   -3.0368   -6.4588  -18.7586 S   0  0  0  0  0
   -7.1983   -5.8541  -21.8326 S   0  0  0  0  0
   -7.5652   -4.6442  -17.7417 S   0  0  0  0  0
   -6.9230   -0.3288  -17.9618 S   0  0  0  0  0
  1 29  1  0  0  0
  2 29  1  0  0  0
  3  4  1  0  0  0
  5 27  1  0  0  0
  6  5  1  0  0  0
  6  7  1  0  0  0
  6 60  1  0  0  0
  7  8  1  0  0  0
  8  9  1  0  0  0
 10 31  1  0  0  0
 10 11  1  0  0  0
 12 32  1  0  0  0
 12 25  1  0  0  0
 13 32  1  0  0  0
 13 33  1  0  0  0
 14 33  1  0  0  0
 14 15  1  0  0  0
 14 22  1  0  0  0
 15 34  1  0  0  0
 16 34  1  0  0  0
 16 35  1  0  0  0
 17 35  1  0  0  0
 17 18  1  0  0  0
 17 19  1  0  0  0
 19 36  1  0  0  0
 19 20  1  0  0  0
 20 40  1  0  0  0
 20 21  1  0  0  0
 21 44  1  0  0  0
 21 16  1  0  0  0
 22 48  1  0  0  0
 22 23  1  0  0  0
 23 52  1  0  0  0
 23 24  1  0  0  0
 24 56  1  0  0  0
 24 13  1  0  0  0
 26 60  1  0  0  0
 26  9  1  0  0  0
 28 61  1  0  0  0
 28  2  1  0  0  0
 62 36  1  0  0  0
 62 39  1  0  0  0
 63 40  1  0  0  0
 63 43  1  0  0  0
 64 44  1  0  0  0
 64 47  1  0  0  0
 65 48  1  0  0  0
 65 51  1  0  0  0
 66 52  1  0  0  0
 66 55  1  0  0  0
 67 56  1  0  0  0
 67 59  1  0  0  0
  2  3  2  0  0  0
  4  5  2  0  0  0
  8 30  2  0  0  0
  9 10  2  0  0  0
 11 12  2  0  0  0
 25 26  2  0  0  0
 27 28  2  0  0  0
 62 37  2  0  0  0
 62 38  2  0  0  0
 63 41  2  0  0  0
 63 42  2  0  0  0
 64 45  2  0  0  0
 64 46  2  0  0  0
 65 49  2  0  0  0
 65 50  2  0  0  0
 66 53  2  0  0  0
 66 54  2  0  0  0
 67 57  2  0  0  0
 67 58  2  0  0  0
M  END
> <rmsd>
0.839702368

$$$$
CHEMBL363981 PubChem-44396992


 56 61  0  0  0  0  0  0  0  0999 V2000
   -4.2126   -2.4556  -16.1619 C   0  0  0  0  0
   -6.1491   -1.6726  -16.7420 C   0  0  0  0  0
   -6.0210   -2.9241  -17.3558 C   0  0  0  0  0
   -4.7764   -3.4093  -16.9698 C   0  0  0  0  0
   -4.0976   -4.6031  -17.2392 C   0  0  0  0  0
   -2.8090   -4.7514  -16.6694 C   0  0  0  0  0
   -2.9368   -2.6568  -15.6191 C   0  0  0  0  0
   -2.0795   -5.9169  -16.9112 C   0  0  0  0  0
   -2.6147   -6.9450  -17.7056 C   0  0  0  0  0
   -3.8976   -6.8020  -18.2593 C   0  0  0  0  0
   -4.6320   -5.6301  -18.0202 C   0  0  0  0  0
   -5.7116   -7.7689  -19.6399 C   0  0  0  0  0
   -0.5861   -8.3401  -17.4388 C   0  0  0  0  0
   -7.0138   -3.5896  -18.2162 C   0  0  0  0  0
   -6.6838   -3.9542  -19.5260 C   0  0  0  0  0
   -7.6302   -4.5755  -20.3569 C   0  0  0  0  0
   -8.9236   -4.8211  -19.8708 C   0  0  0  0  0
   -9.2534   -4.4459  -18.5577 C   0  0  0  0  0
   -8.3047   -3.8336  -17.7369 C   0  0  0  0  0
  -11.1948   -5.7109  -20.2941 C   0  0  0  0  0
   -6.0099   -4.7763  -22.2157 C   0  0  0  0  0
   -7.2697   -0.7285  -16.9334 C   0  0  0  0  0
   -8.3538    1.3075  -19.0794 C   0  0  0  0  0
   -8.9625    2.6275  -18.6326 C   0  0  0  0  0
   -8.5127    2.9761  -17.2505 C   0  0  0  0  0
   -7.2011    3.4217  -16.9991 C   0  0  0  0  0
   -6.8184    3.7168  -15.6804 C   0  0  0  0  0
   -7.7298    3.5765  -14.6310 C   0  0  0  0  0
   -9.0409    3.1441  -14.8852 C   0  0  0  0  0
   -9.4240    2.8504  -16.1963 C   0  0  0  0  0
   -9.6721    3.2630  -12.4956 C   0  0  0  0  0
   -4.9782    4.0602  -17.8923 C   0  0  0  0  0
   -4.7057   -0.1379  -15.3422 C   0  0  0  0  0
   -4.5172    0.9973  -16.3494 C   0  0  0  0  0
   -3.5441    0.6426  -17.4244 C   0  0  0  0  0
   -2.1931    0.4419  -17.1283 C   0  0  0  0  0
   -1.2910    0.0655  -18.1365 C   0  0  0  0  0
   -1.7525   -0.1031  -19.4512 C   0  0  0  0  0
   -3.1096    0.1113  -19.7426 C   0  0  0  0  0
   -3.9993    0.4820  -18.7339 C   0  0  0  0  0
   -1.2355   -0.6844  -21.8002 C   0  0  0  0  0
    0.6039   -0.0240  -16.5464 C   0  0  0  0  0
   -5.0353   -1.3955  -16.0142 N   0  0  0  0  0
   -8.0432   -0.7643  -18.1331 N   0  0  0  0  0
   -9.0203    0.2030  -18.4068 N   0  0  0  0  0
   -2.2886   -3.7898  -15.8987 O   0  0  0  0  0
   -2.4005   -1.7978  -14.8711 O   0  0  0  0  0
   -4.4224   -7.8349  -19.0439 O   0  0  0  0  0
   -1.8911   -8.1161  -17.9553 O   0  0  0  0  0
   -9.8629   -5.4363  -20.7055 O   0  0  0  0  0
   -7.3065   -4.9564  -21.6631 O   0  0  0  0  0
   -7.5345    0.1226  -16.0432 O   0  0  0  0  0
   -9.9776    2.9948  -13.8579 O   0  0  0  0  0
   -6.3013    3.5678  -18.0628 O   0  0  0  0  0
   -0.8489   -0.4838  -20.4486 O   0  0  0  0  0
    0.0617   -0.1508  -17.8539 O   0  0  0  0  0
  1 43  1  0  0  0
  2 22  1  0  0  0
  3  4  1  0  0  0
  3 14  1  0  0  0
  4  5  1  0  0  0
  6 46  1  0  0  0
  6  8  1  0  0  0
  7 46  1  0  0  0
  7  1  1  0  0  0
  9 10  1  0  0  0
  9 49  1  0  0  0
 10 48  1  0  0  0
 11  5  1  0  0  0
 12 48  1  0  0  0
 13 49  1  0  0  0
 15 16  1  0  0  0
 16 51  1  0  0  0
 17 18  1  0  0  0
 17 50  1  0  0  0
 19 14  1  0  0  0
 20 50  1  0  0  0
 21 51  1  0  0  0
 22 44  1  0  0  0
 23 45  1  0  0  0
 23 24  1  0  0  0
 24 25  1  0  0  0
 26 27  1  0  0  0
 26 54  1  0  0  0
 28 29  1  0  0  0
 29 53  1  0  0  0
 30 25  1  0  0  0
 31 53  1  0  0  0
 32 54  1  0  0  0
 33 43  1  0  0  0
 33 34  1  0  0  0
 34 35  1  0  0  0
 36 37  1  0  0  0
 37 56  1  0  0  0
 38 39  1  0  0  0
 38 55  1  0  0  0
 40 35  1  0  0  0
 41 55  1  0  0  0
 42 56  1  0  0  0
 43  2  1  0  0  0
 44 45  1  0  0  0
  2  3  2  0  0  0
  4  1  2  0  0  0
  5  6  2  0  0  0
  7 47  2  0  0  0
  8  9  2  0  0  0
 10 11  2  0  0  0
 14 15  2  0  0  0
 16 17  2  0  0  0
 18 19  2  0  0  0
 22 52  2  0  0  0
 25 26  2  0  0  0
 27 28  2  0  0  0
 29 30  2  0  0  0
 35 36  2  0  0  0
 37 38  2  0  0  0
 39 40  2  0  0  0
M  END
> <rmsd>
0.643317461

$$$$
CHEMBL1213878 PubChem-16146159


 84 96  0  0  0  0  0  0  0  0999 V2000
   -5.2043   -4.8471  -12.4337 O   0  0  0  0  0
   -8.7534   -3.5982  -15.4548 O   0  0  0  0  0
   -4.3017   -1.7027  -15.9794 O   0  0  0  0  0
   -1.0654    3.1644  -18.4650 O   0  0  0  0  0
   -2.5899    3.2670  -16.1112 O   0  0  0  0  0
   -6.3738    0.3362  -16.3154 O   0  0  0  0  0
   -5.5367   -4.3357  -17.7212 O   0  0  0  0  0
   -8.9446   -1.0280  -18.7836 O   0  0  0  0  0
  -10.1078    5.1852  -18.8408 O   0  0  0  0  0
  -12.2655    3.8787  -20.0821 O   0  0  0  0  0
  -11.2216   -1.0567  -19.2255 O   0  0  0  0  0
  -14.5545   -4.5523  -19.3697 O   0  0  0  0  0
  -10.8225   -4.7175  -22.4093 O   0  0  0  0  0
  -10.6262   -0.3030  -21.9625 O   0  0  0  0  0
   -8.1445   -4.7629  -21.7897 O   0  0  0  0  0
   -3.8533   -5.3029  -26.5075 O   0  0  0  0  0
   -5.1869   -3.0754  -25.4451 O   0  0  0  0  0
   -7.9496   -7.3769  -20.3141 O   0  0  0  0  0
   -4.8306   -3.5486  -21.4130 O   0  0  0  0  0
   -0.5350   -5.6649  -21.1351 O   0  0  0  0  0
   -4.4227   -7.9155  -19.2892 O   0  0  0  0  0
   -6.4482  -12.2096  -15.1190 O   0  0  0  0  0
   -6.0655  -13.2044  -17.7206 O   0  0  0  0  0
   -2.1219   -8.0316  -17.5241 O   0  0  0  0  0
   -5.6475   -4.1152  -13.5272 C   0  0  0  0  0
   -6.9781   -4.2123  -13.9434 C   0  0  0  0  0
   -7.4270   -3.4864  -15.0500 C   0  0  0  0  0
   -6.5375   -2.6541  -15.7465 C   0  0  0  0  0
   -5.1986   -2.5474  -15.3148 C   0  0  0  0  0
   -4.7627   -3.2767  -14.2071 C   0  0  0  0  0
   -4.6364   -1.0758  -17.2204 C   0  0  0  0  0
   -3.7009    0.0492  -17.5355 C   0  0  0  0  0
   -2.9433   -0.0002  -18.7093 C   0  0  0  0  0
   -2.0642    1.0418  -19.0190 C   0  0  0  0  0
   -1.9400    2.1335  -18.1532 C   0  0  0  0  0
   -2.6974    2.1850  -16.9779 C   0  0  0  0  0
   -3.5726    1.1447  -16.6712 C   0  0  0  0  0
   -6.1129   -0.6608  -17.2585 C   0  0  0  0  0
   -6.9982   -1.8740  -16.9547 C   0  0  0  0  0
   -7.2779   -2.6886  -18.2027 C   0  0  0  0  0
   -6.5561   -3.8553  -18.5449 C   0  0  0  0  0
   -6.8574   -4.5474  -19.7290 C   0  0  0  0  0
   -7.8360   -4.0614  -20.6118 C   0  0  0  0  0
   -8.5300   -2.8828  -20.2994 C   0  0  0  0  0
   -8.2597   -2.2132  -19.0890 C   0  0  0  0  0
   -9.9722   -0.4716  -19.6111 C   0  0  0  0  0
  -10.0184    1.0248  -19.4002 C   0  0  0  0  0
   -8.9390    1.6907  -18.7944 C   0  0  0  0  0
   -8.9733    3.0722  -18.6051 C   0  0  0  0  0
  -10.0832    3.8068  -19.0294 C   0  0  0  0  0
  -11.1603    3.1571  -19.6468 C   0  0  0  0  0
  -11.1257    1.7725  -19.8331 C   0  0  0  0  0
  -11.6802   -2.2720  -19.7523 C   0  0  0  0  0
  -12.8755   -2.8233  -19.2825 C   0  0  0  0  0
  -13.3685   -4.0035  -19.8404 C   0  0  0  0  0
  -12.6793   -4.6259  -20.8832 C   0  0  0  0  0
  -11.4757   -4.0926  -21.3547 C   0  0  0  0  0
  -10.9549   -2.9245  -20.7749 C   0  0  0  0  0
   -9.6235   -2.3543  -21.2060 C   0  0  0  0  0
   -9.6617   -0.8199  -21.0904 C   0  0  0  0  0
   -7.5012   -5.9815  -22.1889 C   0  0  0  0  0
   -6.5167   -5.7752  -23.3059 C   0  0  0  0  0
   -5.8536   -6.8862  -23.8513 C   0  0  0  0  0
   -4.9667   -6.7270  -24.9181 C   0  0  0  0  0
   -4.7378   -5.4559  -25.4500 C   0  0  0  0  0
   -5.4074   -4.3418  -24.9213 C   0  0  0  0  0
   -6.2957   -4.5041  -23.8558 C   0  0  0  0  0
   -6.9149   -6.7499  -21.0041 C   0  0  0  0  0
   -6.1465   -5.8340  -20.0513 C   0  0  0  0  0
   -4.6699   -5.7477  -20.3628 C   0  0  0  0  0
   -4.0782   -4.6457  -21.0185 C   0  0  0  0  0
   -2.7043   -4.6380  -21.2740 C   0  0  0  0  0
   -1.9005   -5.7094  -20.8887 C   0  0  0  0  0
   -2.4715   -6.8091  -20.2325 C   0  0  0  0  0
   -3.8560   -6.8290  -19.9712 C   0  0  0  0  0
   -3.6857   -9.1065  -19.0152 C   0  0  0  0  0
   -4.3741   -9.9304  -17.9678 C   0  0  0  0  0
   -4.5808   -9.4338  -16.6692 C   0  0  0  0  0
   -5.2649  -10.1996  -15.7213 C   0  0  0  0  0
   -5.7617  -11.4589  -16.0682 C   0  0  0  0  0
   -5.5679  -11.9568  -17.3661 C   0  0  0  0  0
   -4.8780  -11.1886  -18.3148 C   0  0  0  0  0
   -2.2239   -8.7893  -18.6943 C   0  0  0  0  0
   -1.6259   -8.0036  -19.8645 C   0  0  0  0  0
 25  1  1  0  0  0
 26 27  1  0  0  0
 27  2  1  0  0  0
 28 29  1  0  0  0
 29  3  1  0  0  0
 30 25  1  0  0  0
 31  3  1  0  0  0
 31 32  1  0  0  0
 31 38  1  0  0  0
 33 34  1  0  0  0
 35  4  1  0  0  0
 35 36  1  0  0  0
 36  5  1  0  0  0
 37 32  1  0  0  0
 38  6  1  0  0  0
 38 39  1  0  0  0
 39 40  1  0  0  0
 39 28  1  0  0  0
 41  7  1  0  0  0
 41 42  1  0  0  0
 43 44  1  0  0  0
 43 15  1  0  0  0
 45  8  1  0  0  0
 45 40  1  0  0  0
 46  8  1  0  0  0
 46 47  1  0  0  0
 46 11  1  0  0  0
 48 49  1  0  0  0
 50  9  1  0  0  0
 50 51  1  0  0  0
 51 10  1  0  0  0
 52 47  1  0  0  0
 53 11  1  0  0  0
 54 55  1  0  0  0
 55 12  1  0  0  0
 56 57  1  0  0  0
 57 13  1  0  0  0
 58 53  1  0  0  0
 59 58  1  0  0  0
 59 60  1  0  0  0
 59 44  1  0  0  0
 60 14  1  0  0  0
 60 46  1  0  0  0
 61 15  1  0  0  0
 61 62  1  0  0  0
 61 68  1  0  0  0
 63 64  1  0  0  0
 65 16  1  0  0  0
 65 66  1  0  0  0
 66 17  1  0  0  0
 67 62  1  0  0  0
 68 18  1  0  0  0
 68 69  1  0  0  0
 69 70  1  0  0  0
 69 42  1  0  0  0
 71 19  1  0  0  0
 71 72  1  0  0  0
 73 20  1  0  0  0
 73 74  1  0  0  0
 75 21  1  0  0  0
 75 70  1  0  0  0
 76 21  1  0  0  0
 76 77  1  0  0  0
 76 83  1  0  0  0
 78 79  1  0  0  0
 80 22  1  0  0  0
 80 81  1  0  0  0
 81 23  1  0  0  0
 82 77  1  0  0  0
 83 24  1  0  0  0
 83 84  1  0  0  0
 84 74  1  0  0  0
 25 26  2  0  0  0
 27 28  2  0  0  0
 29 30  2  0  0  0
 32 33  2  0  0  0
 34 35  2  0  0  0
 36 37  2  0  0  0
 40 41  2  0  0  0
 42 43  2  0  0  0
 44 45  2  0  0  0
 47 48  2  0  0  0
 49 50  2  0  0  0
 51 52  2  0  0  0
 53 54  2  0  0  0
 55 56  2  0  0  0
 57 58  2  0  0  0
 62 63  2  0  0  0
 64 65  2  0  0  0
 66 67  2  0  0  0
 70 71  2  0  0  0
 72 73  2  0  0  0
 74 75  2  0  0  0
 77 78  2  0  0  0
 79 80  2  0  0  0
 81 82  2  0  0  0
M  END
> <rmsd>
0.628694355

$$$$
CHEMBL506814 PubChem-16148440


 78 88  0  0  0  0  0  0  0  0999 V2000
   -5.4510    1.7274  -17.0225 C   0  0  0  0  0
   -4.1475    1.7649  -17.5617 C   0  0  0  0  0
   -3.7781    2.7394  -18.5031 C   0  0  0  0  0
   -4.7051    3.7033  -18.9022 C   0  0  0  0  0
   -6.0237    3.6420  -18.4380 C   0  0  0  0  0
   -6.4180    2.6428  -17.5275 C   0  0  0  0  0
   -7.8634    2.4809  -17.2519 C   0  0  0  0  0
   -8.6293    1.4442  -17.8613 C   0  0  0  0  0
   -9.9921    1.3395  -17.5436 C   0  0  0  0  0
  -10.6003    2.2291  -16.6599 C   0  0  0  0  0
   -9.8476    3.2458  -16.0687 C   0  0  0  0  0
   -8.4841    3.3733  -16.3571 C   0  0  0  0  0
   -8.0637    0.4416  -18.8083 C   0  0  0  0  0
   -6.1652   -0.4027  -20.1543 C   0  0  0  0  0
   -4.9713   -0.9818  -19.3987 C   0  0  0  0  0
   -3.9090   -1.6077  -20.3169 C   0  0  0  0  0
   -4.1242   -3.1105  -20.4938 C   0  0  0  0  0
   -5.5571   -3.5141  -20.1750 C   0  0  0  0  0
   -5.9236   -3.0594  -18.7563 C   0  0  0  0  0
   -6.5408   -5.4888  -21.2294 C   0  0  0  0  0
   -6.1665   -6.7206  -21.9707 C   0  0  0  0  0
   -4.9071   -7.3796  -21.8559 C   0  0  0  0  0
   -3.8639   -6.9728  -20.8756 C   0  0  0  0  0
   -3.0947   -5.7962  -21.0420 C   0  0  0  0  0
   -3.3670   -4.8233  -22.1153 C   0  0  0  0  0
   -2.1056   -5.4724  -20.1057 C   0  0  0  0  0
   -1.8528   -6.3030  -19.0177 C   0  0  0  0  0
   -2.6027   -7.4680  -18.8454 C   0  0  0  0  0
   -3.6083   -7.8031  -19.7631 C   0  0  0  0  0
   -4.6428   -8.5040  -22.6649 C   0  0  0  0  0
   -5.6063   -8.9867  -23.5552 C   0  0  0  0  0
   -6.8419   -8.3512  -23.6542 C   0  0  0  0  0
   -7.1122   -7.2303  -22.8751 C   0  0  0  0  0
   -1.4365   -1.4079  -20.4851 C   0  0  0  0  0
   -0.1170   -1.1530  -19.8426 C   0  0  0  0  0
    0.0377   -0.6922  -18.5046 C   0  0  0  0  0
   -1.1318   -0.4025  -17.6442 C   0  0  0  0  0
   -1.5041   -1.3640  -16.6796 C   0  0  0  0  0
   -2.7183   -1.2509  -15.9967 C   0  0  0  0  0
   -3.5952   -0.2062  -16.2939 C   0  0  0  0  0
   -5.7232    0.7320  -16.0454 C   0  0  0  0  0
   -3.2191    0.7776  -17.2230 C   0  0  0  0  0
   -1.9687    0.7254  -17.8716 C   0  0  0  0  0
   -1.6586    1.7810  -18.7653 C   0  0  0  0  0
    1.3297   -0.4778  -17.9861 C   0  0  0  0  0
    2.4565   -0.7081  -18.7823 C   0  0  0  0  0
    2.3064   -1.1515  -20.0980 C   0  0  0  0  0
    1.0318   -1.3661  -20.6196 C   0  0  0  0  0
   -7.7426    4.3825  -15.7407 O   0  0  0  0  0
  -10.4508    4.1270  -15.1839 O   0  0  0  0  0
  -11.9542    2.0954  -16.3738 O   0  0  0  0  0
   -8.7545   -0.5654  -19.1277 O   0  0  0  0  0
   -6.7893    0.6026  -19.3624 O   0  0  0  0  0
   -5.3533   -1.8278  -18.3258 O   0  0  0  0  0
   -7.3090   -3.0246  -18.6052 O   0  0  0  0  0
   -5.6859   -4.9230  -20.2874 O   0  0  0  0  0
   -7.6365   -4.9136  -21.4861 O   0  0  0  0  0
   -3.2230   -5.1651  -23.3193 O   0  0  0  0  0
   -3.7701   -3.5147  -21.8157 O   0  0  0  0  0
   -4.3530   -8.9641  -19.5642 O   0  0  0  0  0
   -2.3541   -8.2936  -17.7576 O   0  0  0  0  0
   -0.8624   -5.9596  -18.1030 O   0  0  0  0  0
   -7.8075   -8.8214  -24.5334 O   0  0  0  0  0
   -5.3297  -10.1006  -24.3418 O   0  0  0  0  0
   -3.4132   -9.1476  -22.5875 O   0  0  0  0  0
   -2.6236   -1.3879  -19.7433 O   0  0  0  0  0
   -1.4843   -1.6325  -21.7244 O   0  0  0  0  0
   -4.7985   -0.1684  -15.7290 O   0  0  0  0  0
   -6.8361    0.6796  -15.4543 O   0  0  0  0  0
   -0.5315    1.8562  -19.3183 O   0  0  0  0  0
   -2.5600    2.7242  -19.0339 O   0  0  0  0  0
   -3.0773   -2.2104  -15.0536 O   0  0  0  0  0
   -0.6781   -2.4560  -16.4201 O   0  0  0  0  0
    3.4206   -1.3785  -20.8922 O   0  0  0  0  0
    3.7282   -0.4928  -18.2650 O   0  0  0  0  0
    1.4951   -0.0205  -16.6811 O   0  0  0  0  0
   -6.9524    4.5603  -18.9132 O   0  0  0  0  0
   -4.3294    4.6996  -19.7973 O   0  0  0  0  0
  2  3  1  0  0  0
  3 71  1  0  0  0
  4  5  1  0  0  0
  4 78  1  0  0  0
  5 77  1  0  0  0
  6  7  1  0  0  0
  6  1  1  0  0  0
  8  9  1  0  0  0
  8 13  1  0  0  0
 10 11  1  0  0  0
 10 51  1  0  0  0
 11 50  1  0  0  0
 12 49  1  0  0  0
 12  7  1  0  0  0
 13 53  1  0  0  0
 14 53  1  0  0  0
 15 14  1  0  0  0
 15 16  1  0  0  0
 15 54  1  0  0  0
 16 17  1  0  0  0
 16 66  1  0  0  0
 17 18  1  0  0  0
 17 59  1  0  0  0
 18 19  1  0  0  0
 18 56  1  0  0  0
 19 54  1  0  0  0
 19 55  1  0  0  0
 20 56  1  0  0  0
 20 21  1  0  0  0
 22 23  1  0  0  0
 22 30  1  0  0  0
 24 25  1  0  0  0
 24 26  1  0  0  0
 25 59  1  0  0  0
 27 28  1  0  0  0
 27 62  1  0  0  0
 28 61  1  0  0  0
 29 60  1  0  0  0
 29 23  1  0  0  0
 30 65  1  0  0  0
 31 32  1  0  0  0
 31 64  1  0  0  0
 32 63  1  0  0  0
 33 21  1  0  0  0
 34 66  1  0  0  0
 34 35  1  0  0  0
 36 37  1  0  0  0
 36 45  1  0  0  0
 37 38  1  0  0  0
 38 73  1  0  0  0
 39 40  1  0  0  0
 39 72  1  0  0  0
 40 68  1  0  0  0
 41 68  1  0  0  0
 41  1  1  0  0  0
 42 43  1  0  0  0
 42  2  1  0  0  0
 43 44  1  0  0  0
 44 71  1  0  0  0
 45 76  1  0  0  0
 46 47  1  0  0  0
 46 75  1  0  0  0
 47 74  1  0  0  0
 48 35  1  0  0  0
  1  2  2  0  0  0
  3  4  2  0  0  0
  5  6  2  0  0  0
  7  8  2  0  0  0
  9 10  2  0  0  0
 11 12  2  0  0  0
 13 52  2  0  0  0
 20 57  2  0  0  0
 21 22  2  0  0  0
 23 24  2  0  0  0
 25 58  2  0  0  0
 26 27  2  0  0  0
 28 29  2  0  0  0
 30 31  2  0  0  0
 32 33  2  0  0  0
 34 67  2  0  0  0
 35 36  2  0  0  0
 38 39  2  0  0  0
 40 42  2  0  0  0
 41 69  2  0  0  0
 43 37  2  0  0  0
 44 70  2  0  0  0
 45 46  2  0  0  0
 47 48  2  0  0  0
M  END
> <rmsd>
0.786557317

$$$$
CHEMBL94507 PubChem-44326595


 38 40  0  0  0  0  0  0  0  0999 V2000
   -0.7149   -9.6604  -23.0526 O   0  0  0  0  0
    0.5447   -7.8296  -21.6938 O   0  0  0  0  0
    0.9023  -10.5298  -21.2047 O   0  0  0  0  0
   -1.5417   -9.3154  -20.5986 O   0  0  0  0  0
   -0.2356  -10.4330  -18.6111 O   0  0  0  0  0
    0.1652   -7.8711  -18.9029 O   0  0  0  0  0
   -2.2092   -8.8881  -17.9183 O   0  0  0  0  0
   -3.9881   -8.1849  -19.7122 O   0  0  0  0  0
   -2.2332   -6.3427  -19.0650 O   0  0  0  0  0
   -4.2394   -7.1435  -17.3054 O   0  0  0  0  0
   -4.2582   -4.6517  -18.1506 O   0  0  0  0  0
   -6.2790   -5.4194  -16.6928 O   0  0  0  0  0
   -5.9953   -6.3039  -19.3051 O   0  0  0  0  0
   -7.6232   -5.3408  -21.1013 O   0  0  0  0  0
   -5.5592   -3.8542  -20.5297 O   0  0  0  0  0
   -7.7095   -4.1685  -18.7682 O   0  0  0  0  0
   -6.2705   -2.0656  -17.6236 O   0  0  0  0  0
   -7.3294    0.8099  -16.5816 O   0  0  0  0  0
   -9.0537   -0.0218  -18.3444 O   0  0  0  0  0
   -0.2140   -9.3419  -21.6628 P   0  0  0  0  0
   -0.9346   -9.1542  -19.0137 P   0  0  0  0  0
   -3.1870   -7.6446  -18.5477 P   0  0  0  0  0
   -5.1622   -5.8381  -17.8923 P   0  0  0  0  0
   -6.7432   -4.9175  -19.9476 P   0  0  0  0  0
   -7.8903   -2.8549  -19.2057 C   0  0  0  0  0
   -7.5918   -1.8890  -18.0724 C   0  0  0  0  0
   -5.7480   -0.7855  -17.3369 C   0  0  0  0  0
   -3.8965   -1.3946  -18.9593 C   0  0  0  0  0
   -2.5514    0.2246  -18.6952 C   0  0  0  0  0
   -1.5093    1.1384  -18.7158 C   0  0  0  0  0
   -2.7006    2.4081  -17.0786 C   0  0  0  0  0
   -3.6140    0.4228  -17.8871 C   0  0  0  0  0
   -6.7450    0.2849  -17.7377 C   0  0  0  0  0
   -7.7486   -0.4739  -18.5590 C   0  0  0  0  0
   -4.4808   -0.5847  -18.0368 N   0  0  0  0  0
   -2.6944   -0.9171  -19.3910 N   0  0  0  0  0
   -1.6116    2.2257  -17.8938 N   0  0  0  0  0
   -3.7202    1.4966  -17.0678 N   0  0  0  0  0
 20  2  1  0  0  0
 20  3  1  0  0  0
 20  4  1  0  0  0
 21  4  1  0  0  0
 21  6  1  0  0  0
 21  7  1  0  0  0
 22  7  1  0  0  0
 22  9  1  0  0  0
 22 10  1  0  0  0
 23 10  1  0  0  0
 23 12  1  0  0  0
 23 13  1  0  0  0
 24 13  1  0  0  0
 24 15  1  0  0  0
 24 16  1  0  0  0
 25 16  1  0  0  0
 26 25  1  0  0  0
 26 17  1  0  0  0
 27 17  1  0  0  0
 27 35  1  0  0  0
 27 33  1  0  0  0
 29 36  1  0  0  0
 30 37  1  0  0  0
 31 38  1  0  0  0
 32 35  1  0  0  0
 32 29  1  0  0  0
 33 18  1  0  0  0
 33 34  1  0  0  0
 34 19  1  0  0  0
 34 26  1  0  0  0
 35 28  1  0  0  0
 20  1  2  0  0  0
 21  5  2  0  0  0
 22  8  2  0  0  0
 23 11  2  0  0  0
 24 14  2  0  0  0
 28 36  2  0  0  0
 29 30  2  0  0  0
 31 37  2  0  0  0
 32 38  2  0  0  0
M  END
> <rmsd>
0.691368401

$$$$
CHEMBL1331383 PubChem-6603812


 53 58  0  0  0  0  0  0  0  0999 V2000
   -5.0303   -5.5150  -18.0450 P   0  0  0  0  0
   -3.0683   -7.3977  -18.4692 P   0  0  0  0  0
   -2.9423   -8.7501  -20.8667 P   0  0  0  0  0
   -6.7320   -4.9841  -20.1414 P   0  0  0  0  0
   -4.1178   -4.4888  -18.6839 O   0  0  0  0  0
   -4.1039   -6.7299  -17.2932 O   0  0  0  0  0
   -1.9800   -6.4014  -18.8021 O   0  0  0  0  0
   -3.9454   -7.7948  -19.8755 O   0  0  0  0  0
   -3.5853   -8.8748  -22.2301 O   0  0  0  0  0
   -2.7462  -10.2977  -20.2005 O   0  0  0  0  0
   -3.7782  -12.6894  -21.4061 O   0  0  0  0  0
   -5.0714  -15.1527  -20.0615 O   0  0  0  0  0
   -5.3779  -13.2281  -18.3244 O   0  0  0  0  0
   -1.4206   -8.0314  -21.0599 O   0  0  0  0  0
   -2.3588   -8.7824  -17.8025 O   0  0  0  0  0
   -6.0739   -6.2282  -19.1879 O   0  0  0  0  0
   -7.8399   -5.5659  -20.9911 O   0  0  0  0  0
   -7.3801   -3.7657  -19.1520 O   0  0  0  0  0
   -5.7078   -1.5523  -18.7709 O   0  0  0  0  0
   -6.7902    0.6828  -16.9657 O   0  0  0  0  0
   -8.8604   -0.1045  -18.3399 O   0  0  0  0  0
   -5.5298   -4.3636  -21.1628 O   0  0  0  0  0
   -5.9547   -4.7552  -16.8518 O   0  0  0  0  0
   -4.0398  -10.7766  -19.9852 C   0  0  0  0  0
   -4.0481  -12.2907  -20.0826 C   0  0  0  0  0
   -4.8442  -13.5164  -21.8099 C   0  0  0  0  0
   -3.3109  -15.4226  -22.4587 C   0  0  0  0  0
   -1.4123  -16.3320  -21.4556 C   0  0  0  0  0
   -2.1550  -17.1736  -23.5598 C   0  0  0  0  0
   -3.1928  -16.2538  -23.5150 C   0  0  0  0  0
   -4.8604  -14.9828  -23.8504 C   0  0  0  0  0
   -5.6233  -13.9815  -20.5924 C   0  0  0  0  0
   -5.3993  -12.8248  -19.6630 C   0  0  0  0  0
   -7.4966   -2.6357  -19.9668 C   0  0  0  0  0
   -7.0371   -1.3935  -19.2161 C   0  0  0  0  0
   -5.7401   -1.4441  -17.3684 C   0  0  0  0  0
   -3.8473    0.2330  -17.2949 C   0  0  0  0  0
   -3.3298    2.0926  -18.6034 C   0  0  0  0  0
   -1.8876    1.4717  -16.8080 C   0  0  0  0  0
   -2.7424    0.4117  -16.5413 C   0  0  0  0  0
   -3.7582   -1.3113  -15.8300 C   0  0  0  0  0
   -6.9956   -0.7016  -16.9436 C   0  0  0  0  0
   -7.9443   -1.1130  -18.0336 C   0  0  0  0  0
   -4.3634  -14.6163  -22.6436 N   0  0  0  0  0
   -2.4388  -15.4287  -21.4223 N   0  0  0  0  0
   -1.2756  -17.1938  -22.5148 N   0  0  0  0  0
   -1.9927  -18.0595  -24.6609 N   0  0  0  0  0
   -4.1582  -16.0050  -24.4178 N   0  0  0  0  0
   -4.5114   -0.8435  -16.8565 N   0  0  0  0  0
   -4.1668    1.0458  -18.3309 N   0  0  0  0  0
   -2.2051    2.3011  -17.8455 N   0  0  0  0  0
   -0.7236    1.7036  -16.0205 N   0  0  0  0  0
   -2.6504   -0.5495  -15.6047 N   0  0  0  0  0
  1  6  1  0  0  0
  1 16  1  0  0  0
  1 23  1  0  0  0
  2  6  1  0  0  0
  2  8  1  0  0  0
  2 15  1  0  0  0
  3  8  1  0  0  0
  3 10  1  0  0  0
  3 14  1  0  0  0
  4 16  1  0  0  0
  4 18  1  0  0  0
  4 22  1  0  0  0
 24 10  1  0  0  0
 25 24  1  0  0  0
 25 11  1  0  0  0
 26 11  1  0  0  0
 26 44  1  0  0  0
 26 32  1  0  0  0
 28 45  1  0  0  0
 29 46  1  0  0  0
 29 47  1  0  0  0
 30 48  1  0  0  0
 30 27  1  0  0  0
 31 44  1  0  0  0
 32 12  1  0  0  0
 32 33  1  0  0  0
 33 13  1  0  0  0
 33 25  1  0  0  0
 34 18  1  0  0  0
 35 34  1  0  0  0
 35 19  1  0  0  0
 36 19  1  0  0  0
 36 49  1  0  0  0
 36 42  1  0  0  0
 38 50  1  0  0  0
 39 51  1  0  0  0
 39 52  1  0  0  0
 40 53  1  0  0  0
 40 37  1  0  0  0
 41 49  1  0  0  0
 42 20  1  0  0  0
 42 43  1  0  0  0
 43 21  1  0  0  0
 43 35  1  0  0  0
 44 27  1  0  0  0
 49 37  1  0  0  0
  1  5  2  0  0  0
  2  7  2  0  0  0
  3  9  2  0  0  0
  4 17  2  0  0  0
 27 45  2  0  0  0
 28 46  2  0  0  0
 29 30  2  0  0  0
 31 48  2  0  0  0
 37 50  2  0  0  0
 38 51  2  0  0  0
 39 40  2  0  0  0
 41 53  2  0  0  0
M  END
> <rmsd>
0.848180473

$$$$
CHEMBL610609 PubChem-46877366


 72 80  0  0  0  0  0  0  0  0999 V2000
   -5.4821   -6.8493  -21.5008 N   0  0  0  0  0
   -3.9119   -8.4990  -21.3686 N   0  0  0  0  0
   -5.8150   -6.9621  -23.8962 N   0  0  0  0  0
   -4.4767   -8.6076  -24.9770 N   0  0  0  0  0
   -2.9288  -10.0125  -23.7550 N   0  0  0  0  0
   -4.5118   -7.3135  -19.3046 N   0  0  0  0  0
   -3.6153   -7.8430  -18.6498 N   0  0  0  0  0
   -2.7169   -8.3685  -17.9973 N   0  0  0  0  0
   -5.0634    0.7065  -18.2763 N   0  0  0  0  0
   -4.6222    1.0253  -16.0627 N   0  0  0  0  0
   -2.9509    1.5541  -19.1057 N   0  0  0  0  0
   -1.4521    2.2541  -17.3945 N   0  0  0  0  0
   -2.0379    2.1202  -15.0482 N   0  0  0  0  0
   -6.8091    0.1185  -16.6246 N   0  0  0  0  0
   -7.6509   -0.2312  -17.4538 N   0  0  0  0  0
   -8.4972   -0.5754  -18.2782 N   0  0  0  0  0
   -5.8553    7.9497  -17.5110 N   0  0  0  0  0
   -7.1334    9.4648  -16.3761 N   0  0  0  0  0
   -7.6761    6.9417  -18.7498 N   0  0  0  0  0
   -9.7986    7.9275  -18.3437 N   0  0  0  0  0
  -10.0886    9.7455  -16.7740 N   0  0  0  0  0
   -4.7280    9.5422  -15.9819 N   0  0  0  0  0
   -3.5912    9.4023  -16.4411 N   0  0  0  0  0
   -2.4559    9.2714  -16.9007 N   0  0  0  0  0
   -4.6492   -7.5632  -20.7058 C   0  0  0  0  0
   -4.3304   -8.3381  -22.6387 C   0  0  0  0  0
   -5.2576   -7.3539  -22.7198 C   0  0  0  0  0
   -5.4149   -7.6045  -25.0337 C   0  0  0  0  0
   -3.9152   -8.9897  -23.7916 C   0  0  0  0  0
   -6.3217   -5.7192  -21.1221 C   0  0  0  0  0
   -5.7884   -4.4459  -21.7211 C   0  0  0  0  0
   -7.0207   -3.5975  -21.8296 C   0  0  0  0  0
   -8.1292   -4.6301  -21.9397 C   0  0  0  0  0
   -8.6659   -4.6766  -23.3595 C   0  0  0  0  0
   -3.8446   -0.9273  -22.2428 C   0  0  0  0  0
   -5.0905   -0.4017  -21.5427 C   0  0  0  0  0
   -5.7324    0.3484  -19.5239 C   0  0  0  0  0
   -5.5177    0.6056  -16.9957 C   0  0  0  0  0
   -3.5708    1.3944  -16.8133 C   0  0  0  0  0
   -3.8302    1.2087  -18.1284 C   0  0  0  0  0
   -1.7489    2.0815  -18.7242 C   0  0  0  0  0
   -2.3502    1.9237  -16.4200 C   0  0  0  0  0
   -5.8289    1.5560  -20.4390 C   0  0  0  0  0
   -5.1796    1.0902  -21.7159 C   0  0  0  0  0
   -5.3391    4.4882  -19.9963 C   0  0  0  0  0
   -4.3202    5.4935  -19.4537 C   0  0  0  0  0
   -4.6984    7.2041  -18.0133 C   0  0  0  0  0
   -5.8835    8.9746  -16.6110 C   0  0  0  0  0
   -7.9036    8.7081  -17.1832 C   0  0  0  0  0
   -7.1480    7.8064  -17.8504 C   0  0  0  0  0
   -9.0174    7.0070  -18.9940 C   0  0  0  0  0
   -9.2656    8.7870  -17.4289 C   0  0  0  0  0
   -4.4286    5.9935  -17.1551 C   0  0  0  0  0
   -3.7421    5.0635  -18.1139 C   0  0  0  0  0
   -7.6414   -5.9042  -21.5771 O   0  0  0  0  0
   -9.4338   -3.5395  -23.6103 O   0  0  0  0  0
   -7.2140   -2.8527  -20.6636 O   0  0  0  0  0
   -4.8047   -3.8805  -20.8970 O   0  0  0  0  0
   -3.1530   -4.5342  -22.8359 O   0  0  0  0  0
   -4.1461   -2.1170  -22.9187 O   0  0  0  0  0
   -5.0218   -0.6805  -20.1686 O   0  0  0  0  0
   -5.9500    1.3881  -22.8406 O   0  0  0  0  0
   -7.1689    1.9002  -20.6404 O   0  0  0  0  0
   -8.2208    4.3039  -20.5076 O   0  0  0  0  0
   -6.1082    3.9403  -18.9554 O   0  0  0  0  0
   -4.9112    6.7718  -19.3387 O   0  0  0  0  0
   -2.3600    5.2902  -18.1269 O   0  0  0  0  0
   -3.6078    6.3223  -16.0705 O   0  0  0  0  0
   -8.5353    2.7793  -18.4144 O   0  0  0  0  0
   -2.2177   -2.8930  -21.0410 O   0  0  0  0  0
   -3.5662   -3.3841  -21.9456 P   0  0  0  0  0
   -7.4999    3.2640  -19.6688 P   0  0  0  0  0
  1 25  1  0  0  0
  9 38  1  0  0  0
 17 48  1  0  0  0
 25  6  1  0  0  0
 26  2  1  0  0  0
 27  3  1  0  0  0
 27  1  1  0  0  0
 28  4  1  0  0  0
 29  5  1  0  0  0
 29 26  1  0  0  0
 30  1  1  0  0  0
 30 31  1  0  0  0
 30 55  1  0  0  0
 31 32  1  0  0  0
 31 58  1  0  0  0
 32 33  1  0  0  0
 32 57  1  0  0  0
 33 55  1  0  0  0
 33 34  1  0  0  0
 34 56  1  0  0  0
 35 60  1  0  0  0
 35 36  1  0  0  0
 36 61  1  0  0  0
 37 61  1  0  0  0
 37  9  1  0  0  0
 37 43  1  0  0  0
 38 14  1  0  0  0
 39 10  1  0  0  0
 40 11  1  0  0  0
 40  9  1  0  0  0
 41 12  1  0  0  0
 42 13  1  0  0  0
 42 39  1  0  0  0
 43 44  1  0  0  0
 43 63  1  0  0  0
 44 62  1  0  0  0
 44 36  1  0  0  0
 45 65  1  0  0  0
 46 45  1  0  0  0
 46 66  1  0  0  0
 47 66  1  0  0  0
 47 17  1  0  0  0
 47 53  1  0  0  0
 48 22  1  0  0  0
 49 18  1  0  0  0
 50 19  1  0  0  0
 50 17  1  0  0  0
 51 20  1  0  0  0
 52 21  1  0  0  0
 52 49  1  0  0  0
 53 54  1  0  0  0
 53 68  1  0  0  0
 54 67  1  0  0  0
 54 46  1  0  0  0
 71 58  1  0  0  0
 71 60  1  0  0  0
 71 70  1  0  0  0
 72 63  1  0  0  0
 72 65  1  0  0  0
 72 69  1  0  0  0
  6  7  2  0  0  0
  7  8  2  0  0  0
 14 15  2  0  0  0
 15 16  2  0  0  0
 22 23  2  0  0  0
 23 24  2  0  0  0
 25  2  2  0  0  0
 26 27  2  0  0  0
 28  3  2  0  0  0
 29  4  2  0  0  0
 38 10  2  0  0  0
 39 40  2  0  0  0
 41 11  2  0  0  0
 42 12  2  0  0  0
 48 18  2  0  0  0
 49 50  2  0  0  0
 51 19  2  0  0  0
 52 20  2  0  0  0
 71 59  2  0  0  0
 72 64  2  0  0  0
M  CHG  6   7   1   8  -1  15   1  16  -1  23   1  24  -1
M  END
> <rmsd>
0.753910482

$$$$
CHEMBL605439 PubChem-46874037


 59 61  0  0  0  0  0  0  0  0999 V2000
   -7.1206  -11.9739  -21.3954 C   0  0  0  0  0
   -6.0417  -11.0090  -21.0630 C   0  0  0  0  0
   -5.2116   -8.5889  -21.1297 C   0  0  0  0  0
   -5.0381   -8.4177  -19.6099 C   0  0  0  0  0
   -6.0575   -2.9816  -19.4241 C   0  0  0  0  0
   -6.1938   -2.0279  -18.2522 C   0  0  0  0  0
   -5.0897   -0.3465  -17.2644 C   0  0  0  0  0
   -3.4699    0.6583  -18.7941 C   0  0  0  0  0
   -2.3577    1.4528  -19.0556 C   0  0  0  0  0
   -1.7097    2.0555  -17.9826 C   0  0  0  0  0
   -3.2483    1.0758  -16.4777 C   0  0  0  0  0
   -6.3325    0.3030  -17.8406 C   0  0  0  0  0
   -6.9575   -0.7935  -18.6635 C   0  0  0  0  0
   -2.7988   -7.8231  -19.7643 C   0  0  0  0  0
   -2.2487   -9.0845  -19.0963 C   0  0  0  0  0
   -2.7870   -7.9197  -21.2951 C   0  0  0  0  0
   -3.8638   -8.8961  -21.7814 C   0  0  0  0  0
   -3.2385   -9.9454  -23.6396 C   0  0  0  0  0
   -2.1899   -9.4559  -24.6200 C   0  0  0  0  0
   -4.1254  -10.9523  -24.3057 C   0  0  0  0  0
   -6.3733  -11.5532  -25.2868 C   0  0  0  0  0
   -7.8115  -11.3283  -24.8752 C   0  0  0  0  0
   -7.1055  -12.4517  -28.0217 C   0  0  0  0  0
   -7.0509  -12.1350  -29.5152 C   0  0  0  0  0
   -8.2605  -12.7045  -30.2604 C   0  0  0  0  0
   -8.2746  -14.2353  -30.2929 C   0  0  0  0  0
   -9.0834  -14.8425  -29.1881 C   0  0  0  0  0
   -5.7598  -12.5433  -30.1696 C   0  0  0  0  0
   -5.0062  -11.4133  -20.4697 O   0  0  0  0  0
   -6.2651   -8.2080  -18.9399 O   0  0  0  0  0
   -6.5719   -5.7843  -18.0063 O   0  0  0  0  0
   -8.5326   -6.7384  -19.4374 O   0  0  0  0  0
   -6.1142   -5.9240  -20.5918 O   0  0  0  0  0
   -8.3586   -5.0114  -21.6182 O   0  0  0  0  0
   -6.1888   -3.7326  -22.2611 O   0  0  0  0  0
   -7.3025   -3.5334  -19.7346 O   0  0  0  0  0
   -4.9227   -1.6290  -17.8152 O   0  0  0  0  0
   -0.7045    2.7849  -18.1822 O   0  0  0  0  0
   -3.6466    0.9255  -15.2912 O   0  0  0  0  0
   -7.1629    0.7059  -16.7918 O   0  0  0  0  0
   -8.3179   -0.9525  -18.3893 O   0  0  0  0  0
   -4.0688   -7.4407  -19.2647 O   0  0  0  0  0
   -2.1072   -8.8699  -17.7232 O   0  0  0  0  0
   -2.9919   -6.6513  -21.8449 O   0  0  0  0  0
   -3.9785   -8.8541  -23.1754 O   0  0  0  0  0
   -3.6396  -12.0558  -24.6726 O   0  0  0  0  0
   -4.7239  -11.2637  -27.4383 O   0  0  0  0  0
   -6.7934   -9.6680  -27.4063 O   0  0  0  0  0
   -9.7390  -14.1274  -28.3842 O   0  0  0  0  0
   -9.1171  -16.2229  -29.0575 O   0  0  0  0  0
   -4.9878  -13.3779  -29.6230 O   0  0  0  0  0
   -5.4186  -12.0070  -31.3980 O   0  0  0  0  0
   -6.1886   -9.6334  -21.4297 N   0  0  0  0  0
   -3.9062    0.4757  -17.5163 N   0  0  0  0  0
   -2.1639    1.8587  -16.7194 N   0  0  0  0  0
   -5.5115  -10.6724  -24.5183 N   0  0  0  0  0
   -6.8576   -6.6275  -19.2265 P   0  0  0  0  0
   -7.0301   -4.5664  -21.0509 P   0  0  0  0  0
   -6.1866  -11.2085  -27.0635 P   0  0  0  0  0
  1  2  1  0  0  0
  2 53  1  0  0  0
  3 53  1  0  0  0
  3  4  1  0  0  0
  4 30  1  0  0  0
  4 42  1  0  0  0
  5 36  1  0  0  0
  6  5  1  0  0  0
  6 37  1  0  0  0
  7 37  1  0  0  0
  7 54  1  0  0  0
  7 12  1  0  0  0
  9 10  1  0  0  0
 10 55  1  0  0  0
 11 54  1  0  0  0
 12 40  1  0  0  0
 12 13  1  0  0  0
 13 41  1  0  0  0
 13  6  1  0  0  0
 14 42  1  0  0  0
 14 15  1  0  0  0
 14 16  1  0  0  0
 15 43  1  0  0  0
 16 44  1  0  0  0
 16 17  1  0  0  0
 17 45  1  0  0  0
 17  3  1  0  0  0
 18 45  1  0  0  0
 18 19  1  0  0  0
 18 20  1  0  0  0
 20 56  1  0  0  0
 21 56  1  0  0  0
 21 22  1  0  0  0
 21 59  1  0  0  0
 24 23  1  0  0  0
 24 25  1  0  0  0
 24 28  1  0  0  0
 25 26  1  0  0  0
 26 27  1  0  0  0
 27 50  1  0  0  0
 28 52  1  0  0  0
 54  8  1  0  0  0
 55 11  1  0  0  0
 57 30  1  0  0  0
 57 32  1  0  0  0
 57 33  1  0  0  0
 58 33  1  0  0  0
 58 35  1  0  0  0
 58 36  1  0  0  0
 59 48  1  0  0  0
 59 23  1  0  0  0
  2 29  2  0  0  0
  8  9  2  0  0  0
 10 38  2  0  0  0
 11 39  2  0  0  0
 20 46  2  0  0  0
 27 49  2  0  0  0
 28 51  2  0  0  0
 57 31  2  0  0  0
 58 34  2  0  0  0
 59 47  2  0  0  0
M  END
> <rmsd>
0.796212018

$$$$
CHEMBL2311620 PubChem-136240916


100111  0  0  0  0  0  0  0  0999 V2000
   -2.4215   -5.8735  -26.6217 C   0  0  0  0  0
   -2.3921   -5.5472  -25.2591 C   0  0  0  0  0
   -3.6564   -5.0423  -24.6824 C   0  0  0  0  0
   -5.9518   -4.1250  -24.3528 C   0  0  0  0  0
   -5.4735   -4.9863  -23.3580 C   0  0  0  0  0
   -6.2872   -5.3571  -22.1958 C   0  0  0  0  0
   -6.4291   -6.3712  -19.8699 C   0  0  0  0  0
   -7.1663   -5.2643  -19.1740 C   0  0  0  0  0
   -9.5147   -4.4765  -18.4927 C   0  0  0  0  0
  -10.6851   -4.0695  -19.0210 C   0  0  0  0  0
  -10.9462   -4.2346  -20.4908 C   0  0  0  0  0
  -12.8893   -2.9916  -18.7192 C   0  0  0  0  0
   -9.2971   -4.3932  -17.0280 C   0  0  0  0  0
   -9.4513   -4.4616  -14.5557 C   0  0  0  0  0
   -8.3351   -3.8037  -15.0773 C   0  0  0  0  0
   -7.3311   -3.1637  -14.1951 C   0  0  0  0  0
   -5.6378   -2.7050  -16.0457 C   0  0  0  0  0
   -5.5375   -1.3696  -16.8243 C   0  0  0  0  0
   -4.1651   -0.4791  -18.3403 C   0  0  0  0  0
   -2.9703    0.3993  -18.5314 C   0  0  0  0  0
   -2.8442    1.7434  -18.1935 C   0  0  0  0  0
   -3.7098    2.6461  -17.5535 C   0  0  0  0  0
   -3.2489    3.9547  -17.3327 C   0  0  0  0  0
   -1.9581    4.3420  -17.7567 C   0  0  0  0  0
   -1.1091    3.4236  -18.4021 C   0  0  0  0  0
   -1.5890    2.1320  -18.6077 C   0  0  0  0  0
   -1.7618    0.0353  -19.1303 C   0  0  0  0  0
   -1.3645   -1.3322  -19.5207 C   0  0  0  0  0
   -1.6857   -3.6722  -18.9036 C   0  0  0  0  0
   -2.3035   -4.7739  -19.7557 C   0  0  0  0  0
   -1.4516   -4.9521  -20.9740 C   0  0  0  0  0
   -0.9337   -5.3686  -23.1266 C   0  0  0  0  0
   -1.1584   -5.6851  -24.5632 C   0  0  0  0  0
   -0.0747   -6.4095  -26.5894 C   0  0  0  0  0
   -1.2850   -6.3145  -27.2938 C   0  0  0  0  0
    1.2108   -6.7963  -27.2118 C   0  0  0  0  0
    3.4389   -7.1000  -27.3435 C   0  0  0  0  0
    3.1289   -7.4878  -28.6472 C   0  0  0  0  0
    4.8417   -7.0676  -26.8335 C   0  0  0  0  0
    5.8013   -5.0654  -28.0480 C   0  0  0  0  0
    6.8166   -3.0249  -29.1503 C   0  0  0  0  0
    8.3171   -3.2425  -29.3206 C   0  0  0  0  0
    9.0924   -2.5955  -28.1851 C   0  0  0  0  0
    0.3587   -5.3930  -22.5876 C   0  0  0  0  0
   -2.5153   -6.2505  -17.6207 C   0  0  0  0  0
   -3.0188   -5.1945  -16.7305 C   0  0  0  0  0
   -4.3986   -3.5557  -16.0622 C   0  0  0  0  0
   -2.4150   -4.9317  -15.5030 C   0  0  0  0  0
   -5.0627    2.2666  -17.0639 C   0  0  0  0  0
   -5.6743    0.6633  -15.2992 C   0  0  0  0  0
   -6.3992   -0.1917  -16.3088 C   0  0  0  0  0
   -8.6546    0.1503  -16.5592 C   0  0  0  0  0
   -9.6772    0.5064  -18.5876 C   0  0  0  0  0
   -9.7496    2.0508  -18.4128 C   0  0  0  0  0
   -9.7379    2.4129  -16.9000 C   0  0  0  0  0
   -8.6415    1.6428  -16.1774 C   0  0  0  0  0
   -9.4358    3.8825  -16.6828 C   0  0  0  0  0
  -10.6215    4.0684  -19.3450 C   0  0  0  0  0
  -10.9619    2.1105  -20.4963 C   0  0  0  0  0
  -10.9736   -0.2305  -18.2208 C   0  0  0  0  0
   -5.5059   -7.1356  -18.9228 C   0  0  0  0  0
   -6.2760   -7.7624  -17.7683 C   0  0  0  0  0
   -4.7214   -4.0173  -25.4934 S   0  0  0  0  0
  -10.3550   -4.9948  -15.8721 S   0  0  0  0  0
    1.4557   -7.3419  -28.7869 S   0  0  0  0  0
    0.2168   -5.1006  -20.9418 S   0  0  0  0  0
   -3.3075   -3.6947  -14.7950 S   0  0  0  0  0
   -4.2266   -5.5025  -23.5511 N   0  0  0  0  0
   -5.6667   -5.8470  -21.0010 N   0  0  0  0  0
   -8.5816   -5.1641  -19.3447 N   0  0  0  0  0
   -8.2563   -3.7682  -16.4414 N   0  0  0  0  0
   -6.1345   -2.5564  -14.6867 N   0  0  0  0  0
   -0.9351    1.1054  -19.1743 N   0  0  0  0  0
   -1.9300   -5.1354  -22.2237 N   0  0  0  0  0
   -0.0658   -6.0990  -25.2668 N   0  0  0  0  0
    2.3901   -6.7183  -26.5601 N   0  0  0  0  0
    5.3634   -5.7077  -26.8479 N   0  0  0  0  0
    6.3067   -3.7279  -27.9799 N   0  0  0  0  0
   -2.3295   -6.0492  -19.0333 N   0  0  0  0  0
   -4.1122   -4.4405  -17.0343 N   0  0  0  0  0
  -10.8886    2.6512  -19.1416 N   0  0  0  0  0
   -7.5476   -5.2473  -22.2616 O   0  0  0  0  0
   -6.5425   -4.4072  -18.4956 O   0  0  0  0  0
  -11.6625   -3.4837  -18.2045 O   0  0  0  0  0
   -7.5287   -3.1628  -12.9492 O   0  0  0  0  0
   -4.2053   -0.9696  -17.0265 O   0  0  0  0  0
   -0.2303   -1.5415  -20.0311 O   0  0  0  0  0
   -2.2107   -2.4062  -19.2603 O   0  0  0  0  0
   -1.3858   -6.6339  -28.6424 O   0  0  0  0  0
    5.7434   -5.6681  -29.1549 O   0  0  0  0  0
   10.4604   -2.6392  -28.4632 O   0  0  0  0  0
    8.6152   -4.6041  -29.4066 O   0  0  0  0  0
   -2.2139   -7.3712  -17.1254 O   0  0  0  0  0
    0.3622    1.1262  -19.6380 O   0  0  0  0  0
   -4.9778    1.7996  -15.7218 O   0  0  0  0  0
   -5.6367    0.3315  -14.0847 O   0  0  0  0  0
   -7.6731   -0.5872  -15.8559 O   0  0  0  0  0
   -8.5420   -0.0480  -17.9557 O   0  0  0  0  0
  -10.9759    2.1206  -16.3241 O   0  0  0  0  0
   -4.8232   -8.1358  -19.6231 O   0  0  0  0  0
  2  3  1  0  0  0
  3 63  1  0  0  0
  4 63  1  0  0  0
  5 68  1  0  0  0
  5  6  1  0  0  0
  6 69  1  0  0  0
  7 69  1  0  0  0
  7  8  1  0  0  0
  7 61  1  0  0  0
  8 70  1  0  0  0
  9 13  1  0  0  0
 10 84  1  0  0  0
 11 10  1  0  0  0
 12 84  1  0  0  0
 13 64  1  0  0  0
 14 64  1  0  0  0
 15 71  1  0  0  0
 15 16  1  0  0  0
 16 72  1  0  0  0
 17 72  1  0  0  0
 17 18  1  0  0  0
 17 47  1  0  0  0
 18 86  1  0  0  0
 19 86  1  0  0  0
 19 20  1  0  0  0
 20 21  1  0  0  0
 22 23  1  0  0  0
 24 25  1  0  0  0
 26 73  1  0  0  0
 26 21  1  0  0  0
 27 28  1  0  0  0
 28 88  1  0  0  0
 29 88  1  0  0  0
 30 29  1  0  0  0
 30 31  1  0  0  0
 30 79  1  0  0  0
 31 66  1  0  0  0
 32 74  1  0  0  0
 32 33  1  0  0  0
 33  2  1  0  0  0
 34 75  1  0  0  0
 34 36  1  0  0  0
 35 89  1  0  0  0
 35  1  1  0  0  0
 36 65  1  0  0  0
 37 76  1  0  0  0
 38 65  1  0  0  0
 39 37  1  0  0  0
 39 77  1  0  0  0
 40 78  1  0  0  0
 41 78  1  0  0  0
 41 42  1  0  0  0
 42 43  1  0  0  0
 42 92  1  0  0  0
 43 91  1  0  0  0
 44 66  1  0  0  0
 45 46  1  0  0  0
 46 80  1  0  0  0
 47 67  1  0  0  0
 48 67  1  0  0  0
 49 22  1  0  0  0
 49 95  1  0  0  0
 50 95  1  0  0  0
 51 50  1  0  0  0
 51 97  1  0  0  0
 51 18  1  0  0  0
 52 97  1  0  0  0
 52 98  1  0  0  0
 53 98  1  0  0  0
 53 54  1  0  0  0
 53 60  1  0  0  0
 54 55  1  0  0  0
 54 81  1  0  0  0
 55 56  1  0  0  0
 55 99  1  0  0  0
 55 57  1  0  0  0
 56 52  1  0  0  0
 58 81  1  0  0  0
 59 81  1  0  0  0
 61 62  1  0  0  0
 61100  1  0  0  0
 70  9  1  0  0  0
 73 27  1  0  0  0
 73 94  1  0  0  0
 77 40  1  0  0  0
 79 45  1  0  0  0
  1  2  2  0  0  0
  3 68  2  0  0  0
  4  5  2  0  0  0
  6 82  2  0  0  0
  8 83  2  0  0  0
  9 10  2  0  0  0
 13 71  2  0  0  0
 14 15  2  0  0  0
 16 85  2  0  0  0
 21 22  2  0  0  0
 23 24  2  0  0  0
 25 26  2  0  0  0
 27 20  2  0  0  0
 28 87  2  0  0  0
 31 74  2  0  0  0
 32 44  2  0  0  0
 33 75  2  0  0  0
 34 35  2  0  0  0
 36 76  2  0  0  0
 37 38  2  0  0  0
 40 90  2  0  0  0
 45 93  2  0  0  0
 47 80  2  0  0  0
 48 46  2  0  0  0
 50 96  2  0  0  0
M  END
> <rmsd>
0.64833653

$$$$
CHEMBL216083


 76 80  0  0  0  0  0  0  0  0999 V2000
   -0.4266   -1.7862  -20.3036 C   0  0  0  0  0
   -0.0351   -1.9623  -18.8471 C   0  0  0  0  0
   -1.1157   -1.4117  -17.9224 C   0  0  0  0  0
   -0.5079   -1.1893  -16.5431 C   0  0  0  0  0
   -2.3454   -2.3270  -17.8684 C   0  0  0  0  0
   -1.7308   -4.7612  -18.0897 C   0  0  0  0  0
   -1.0260   -5.9298  -17.4860 C   0  0  0  0  0
    0.4473   -5.5961  -17.3070 C   0  0  0  0  0
    1.1185   -6.5402  -16.3593 C   0  0  0  0  0
    1.3406   -7.8784  -16.7125 C   0  0  0  0  0
    2.0512   -8.7212  -15.8545 C   0  0  0  0  0
    2.5364   -8.2327  -14.6343 C   0  0  0  0  0
    2.3088   -6.9036  -14.2722 C   0  0  0  0  0
    1.6090   -6.0562  -15.1416 C   0  0  0  0  0
   -1.8439   -8.2847  -17.9147 C   0  0  0  0  0
   -1.7823   -9.4917  -18.7925 C   0  0  0  0  0
   -0.6385  -10.4143  -18.3657 C   0  0  0  0  0
   -0.9731  -11.2370  -17.1318 C   0  0  0  0  0
   -0.2458  -11.3379  -19.4998 C   0  0  0  0  0
   -4.1949   -9.7169  -19.5576 C   0  0  0  0  0
   -5.4503  -10.5449  -19.6691 C   0  0  0  0  0
   -5.4833  -11.8124  -18.8050 C   0  0  0  0  0
   -4.4128  -12.8119  -19.2025 C   0  0  0  0  0
   -4.5610  -14.0673  -18.3747 C   0  0  0  0  0
   -6.6218  -15.3508  -18.4959 C   0  0  0  0  0
   -4.8139  -11.3468  -21.9888 C   0  0  0  0  0
   -7.1491  -10.5826  -21.5419 C   0  0  0  0  0
   -8.2234  -10.0041  -20.6670 C   0  0  0  0  0
   -7.9018   -8.5684  -20.2805 C   0  0  0  0  0
   -9.1102   -7.8746  -19.6563 C   0  0  0  0  0
  -10.2534   -7.7278  -20.6546 C   0  0  0  0  0
   -9.9584   -6.6563  -21.6818 C   0  0  0  0  0
   -9.1637   -4.3285  -21.1053 C   0  0  0  0  0
   -9.5019   -2.9662  -20.5761 C   0  0  0  0  0
  -10.2268   -2.1405  -21.6357 C   0  0  0  0  0
  -11.6596   -2.5428  -21.7494 C   0  0  0  0  0
  -12.1181   -3.0983  -22.9474 C   0  0  0  0  0
  -13.4580   -3.4595  -23.0852 C   0  0  0  0  0
  -14.3461   -3.2682  -22.0240 C   0  0  0  0  0
  -13.8911   -2.7105  -20.8246 C   0  0  0  0  0
  -12.5501   -2.3407  -20.6871 C   0  0  0  0  0
   -8.3887   -1.0871  -19.3301 C   0  0  0  0  0
   -7.1936   -0.1932  -19.1866 C   0  0  0  0  0
   -7.2400    0.8824  -20.2578 C   0  0  0  0  0
   -7.8929    2.0953  -19.6026 C   0  0  0  0  0
   -7.7278    1.8890  -18.1025 C   0  0  0  0  0
   -6.2972    0.2651  -16.8948 C   0  0  0  0  0
   -4.8293    0.4563  -17.1220 C   0  0  0  0  0
   -4.5528    1.7459  -17.8939 C   0  0  0  0  0
   -3.1113    1.9148  -18.2307 C   0  0  0  0  0
   -2.0889    2.1705  -17.3450 C   0  0  0  0  0
   -1.3190    2.0225  -19.3424 C   0  0  0  0  0
   -3.4613   -1.6535  -17.1330 C   0  0  0  0  0
   -2.0075   -3.6183  -17.2762 N   0  0  0  0  0
   -1.1558   -7.1061  -18.3298 N   0  0  0  0  0
   -3.0530  -10.2056  -18.8435 N   0  0  0  0  0
   -5.5002  -14.9728  -19.0277 N   0  0  0  0  0
   -7.4520  -16.2585  -19.1968 N   0  0  0  0  0
   -7.0132  -14.9053  -17.2010 N   0  0  0  0  0
   -5.8141  -10.8232  -21.0626 N   0  0  0  0  0
   -8.4310  -10.8270  -19.4840 N   0  0  0  0  0
  -10.1712   -5.3386  -21.1060 N   0  0  0  0  0
   -8.3024   -2.2582  -20.1391 N   0  0  0  0  0
   -7.2528    0.5270  -17.9233 N   0  0  0  0  0
   -0.9556    2.2417  -18.0629 N   0  0  0  0  0
   -2.6419    1.8176  -19.4826 N   0  0  0  0  0
   -4.2629   -0.6912  -17.8187 N   0  0  0  0  0
   -2.0058   -4.7451  -19.3204 O   0  0  0  0  0
    3.2434   -9.0671  -13.7791 O   0  0  0  0  0
   -2.4266   -8.3298  -16.7974 O   0  0  0  0  0
   -4.1609   -8.5826  -20.1042 O   0  0  0  0  0
   -7.4374  -10.8362  -22.7401 O   0  0  0  0  0
   -8.0264   -4.5698  -21.5917 O   0  0  0  0  0
   -9.4913   -0.7651  -18.8067 O   0  0  0  0  0
   -6.6965   -0.0967  -15.7541 O   0  0  0  0  0
   -3.6364   -1.8625  -15.9063 O   0  0  0  0  0
  1  2  1  0  0  0
  3  2  1  0  0  0
  3  4  1  0  0  0
  3  5  1  0  0  0
  5 54  1  0  0  0
  5 53  1  0  0  0
  7  6  1  0  0  0
  7  8  1  0  0  0
  7 55  1  0  0  0
  8  9  1  0  0  0
 10 11  1  0  0  0
 12 69  1  0  0  0
 12 13  1  0  0  0
 14  9  1  0  0  0
 16 15  1  0  0  0
 16 17  1  0  0  0
 16 56  1  0  0  0
 17 18  1  0  0  0
 17 19  1  0  0  0
 21 20  1  0  0  0
 21 22  1  0  0  0
 21 60  1  0  0  0
 22 23  1  0  0  0
 23 24  1  0  0  0
 24 57  1  0  0  0
 25 58  1  0  0  0
 25 59  1  0  0  0
 26 60  1  0  0  0
 28 27  1  0  0  0
 28 61  1  0  0  0
 28 29  1  0  0  0
 29 30  1  0  0  0
 30 31  1  0  0  0
 31 32  1  0  0  0
 32 62  1  0  0  0
 34 33  1  0  0  0
 34 35  1  0  0  0
 34 63  1  0  0  0
 35 36  1  0  0  0
 37 38  1  0  0  0
 39 40  1  0  0  0
 41 36  1  0  0  0
 43 42  1  0  0  0
 43 44  1  0  0  0
 43 64  1  0  0  0
 44 45  1  0  0  0
 45 46  1  0  0  0
 46 64  1  0  0  0
 48 47  1  0  0  0
 48 49  1  0  0  0
 48 67  1  0  0  0
 49 50  1  0  0  0
 50 66  1  0  0  0
 51 65  1  0  0  0
 54  6  1  0  0  0
 55 15  1  0  0  0
 56 20  1  0  0  0
 60 27  1  0  0  0
 62 33  1  0  0  0
 63 42  1  0  0  0
 64 47  1  0  0  0
 65 52  1  0  0  0
 67 53  1  0  0  0
  6 68  2  0  0  0
  9 10  2  0  0  0
 11 12  2  0  0  0
 13 14  2  0  0  0
 15 70  2  0  0  0
 20 71  2  0  0  0
 25 57  2  0  0  0
 27 72  2  0  0  0
 33 73  2  0  0  0
 36 37  2  0  0  0
 38 39  2  0  0  0
 40 41  2  0  0  0
 42 74  2  0  0  0
 47 75  2  0  0  0
 50 51  2  0  0  0
 52 66  2  0  0  0
 53 76  2  0  0  0
M  END
> <rmsd>
0.835355639

$$$$
CHEMBL2447907 CHEMBL2447908


 80 83  0  0  0  0  0  0  0  0999 V2000
   -6.1305    2.8680  -19.0685 C   0  0  0  0  0
   -6.7080    0.4496  -18.6272 C   0  0  0  0  0
   -5.2825   -0.1071  -18.7390 C   0  0  0  0  0
   -4.7218   -0.6648  -17.4401 C   0  0  0  0  0
   -5.1993   -1.1273  -19.8591 C   0  0  0  0  0
   -3.9605   -0.9435  -20.6643 C   0  0  0  0  0
   -2.6460   -1.4138  -20.1211 C   0  0  0  0  0
   -1.5397   -0.3481  -20.2221 C   0  0  0  0  0
   -1.7755    0.8024  -19.3047 C   0  0  0  0  0
   -2.0192    2.0752  -19.8356 C   0  0  0  0  0
   -2.2215    3.1640  -18.9835 C   0  0  0  0  0
   -2.1689    2.9922  -17.5879 C   0  0  0  0  0
   -1.9255    1.7143  -17.0574 C   0  0  0  0  0
   -1.7273    0.6238  -17.9146 C   0  0  0  0  0
   -2.5514    5.3994  -17.1475 C   0  0  0  0  0
   -1.6224   -2.5576  -22.0000 C   0  0  0  0  0
   -1.3762   -3.3924  -19.7994 C   0  0  0  0  0
   -1.7736   -4.8336  -19.6589 C   0  0  0  0  0
   -3.0530   -5.2644  -18.9701 C   0  0  0  0  0
   -3.7388   -4.1189  -18.2398 C   0  0  0  0  0
   -3.3086   -4.2427  -16.7846 C   0  0  0  0  0
   -2.8910   -5.6919  -16.5935 C   0  0  0  0  0
   -2.7126   -7.6536  -18.1422 C   0  0  0  0  0
   -3.5058   -8.3213  -19.2332 C   0  0  0  0  0
   -2.8894   -8.0392  -20.5945 C   0  0  0  0  0
   -3.4109   -8.9962  -21.6634 C   0  0  0  0  0
   -4.7664   -8.5300  -22.1747 C   0  0  0  0  0
   -2.4302   -9.0145  -22.8161 C   0  0  0  0  0
   -5.7279   -8.2214  -18.2726 C   0  0  0  0  0
   -7.1192   -7.6615  -18.2988 C   0  0  0  0  0
   -7.1709   -6.3415  -17.5712 C   0  0  0  0  0
   -7.6345   -5.0816  -18.2743 C   0  0  0  0  0
   -7.7827   -4.2784  -20.6150 C   0  0  0  0  0
   -7.7458   -2.8387  -20.2086 C   0  0  0  0  0
   -9.1198   -2.1871  -20.3198 C   0  0  0  0  0
   -9.0981   -0.7886  -19.6877 C   0  0  0  0  0
   -7.6555   -0.3546  -17.7749 C   0  0  0  0  0
  -10.4634   -0.0862  -19.8210 C   0  0  0  0  0
  -10.6003    1.0773  -18.8386 C   0  0  0  0  0
  -10.6459    0.4567  -21.2350 C   0  0  0  0  0
  -12.1189    0.6924  -21.5206 C   0  0  0  0  0
   -8.9293   -4.5003  -17.6954 C   0  0  0  0  0
   -8.7404   -3.9887  -16.2737 C   0  0  0  0  0
  -10.0752   -5.4909  -17.7492 C   0  0  0  0  0
   -8.1224   -8.6385  -17.7078 C   0  0  0  0  0
   -6.4273    4.3160  -18.7968 C   0  0  0  0  0
   -5.7562    4.7817  -17.5099 C   0  0  0  0  0
   -6.5125    4.2755  -16.2962 C   0  0  0  0  0
   -7.0749    5.4554  -15.5265 C   0  0  0  0  0
   -5.5662    3.5001  -15.4066 C   0  0  0  0  0
   -4.9277    6.0563  -19.9082 C   0  0  0  0  0
   -6.8273    5.0255  -21.1831 C   0  0  0  0  0
   -6.3409    5.6704  -22.4565 C   0  0  0  0  0
   -7.3318    6.7301  -22.9074 C   0  0  0  0  0
   -8.1292    6.1151  -24.0563 C   0  0  0  0  0
   -7.3311    4.9163  -24.5400 C   0  0  0  0  0
   -5.3470    3.6256  -23.6518 C   0  0  0  0  0
   -4.0278    3.6748  -22.9817 C   0  0  0  0  0
   -3.1149    2.4937  -23.0270 C   0  0  0  0  0
   -5.3810    2.5461  -20.0337 O   0  0  0  0  0
   -4.0422   -0.4970  -21.7984 O   0  0  0  0  0
   -2.3502    4.0634  -16.7112 O   0  0  0  0  0
   -1.0337   -5.6833  -20.1269 O   0  0  0  0  0
   -2.0423   -8.3723  -17.3570 O   0  0  0  0  0
   -6.8032   -6.2818  -16.4079 O   0  0  0  0  0
   -7.7830   -5.3103  -19.6744 O   0  0  0  0  0
   -7.7774   -4.5664  -21.8443 O   0  0  0  0  0
   -7.4118   -0.4863  -16.4138 O   0  0  0  0  0
   -9.4873   -2.1158  -21.6684 O   0  0  0  0  0
   -5.3232   -9.0672  -17.2383 O   0  0  0  0  0
   -7.9035    4.3672  -21.1994 O   0  0  0  0  0
   -5.6402    2.6234  -24.3621 O   0  0  0  0  0
   -3.6526    4.7104  -22.3853 O   0  0  0  0  0
   -6.7109    1.8583  -18.2416 N   0  0  0  0  0
   -2.2885   -2.7117  -20.7080 N   0  0  0  0  0
   -2.7563   -6.2358  -17.9288 N   0  0  0  0  0
   -4.8956   -7.8729  -19.2048 N   0  0  0  0  0
   -8.7198   -0.9048  -18.2802 N   0  0  0  0  0
   -6.0801    5.1570  -19.9570 N   0  0  0  0  0
   -6.3019    4.6941  -23.5382 N   0  0  0  0  0
  1 74  1  0  0  0
  2 74  1  0  0  0
  2  3  1  0  0  0
  2 37  1  0  0  0
  3  4  1  0  0  0
  3  5  1  0  0  0
  5  6  1  0  0  0
  7  6  1  0  0  0
  7  8  1  0  0  0
  7 75  1  0  0  0
  8  9  1  0  0  0
 10 11  1  0  0  0
 12 13  1  0  0  0
 12 62  1  0  0  0
 14  9  1  0  0  0
 15 62  1  0  0  0
 16 75  1  0  0  0
 17 75  1  0  0  0
 17 18  1  0  0  0
 19 18  1  0  0  0
 19 20  1  0  0  0
 19 76  1  0  0  0
 20 21  1  0  0  0
 21 22  1  0  0  0
 22 76  1  0  0  0
 24 23  1  0  0  0
 24 25  1  0  0  0
 24 77  1  0  0  0
 25 26  1  0  0  0
 26 27  1  0  0  0
 26 28  1  0  0  0
 29 70  1  0  0  0
 30 29  1  0  0  0
 30 31  1  0  0  0
 30 45  1  0  0  0
 32 31  1  0  0  0
 32 66  1  0  0  0
 32 42  1  0  0  0
 33 66  1  0  0  0
 34 33  1  0  0  0
 34 35  1  0  0  0
 35 36  1  0  0  0
 35 69  1  0  0  0
 36 78  1  0  0  0
 36 38  1  0  0  0
 37 68  1  0  0  0
 38 39  1  0  0  0
 38 40  1  0  0  0
 40 41  1  0  0  0
 42 43  1  0  0  0
 42 44  1  0  0  0
 46  1  1  0  0  0
 46 47  1  0  0  0
 46 79  1  0  0  0
 47 48  1  0  0  0
 48 49  1  0  0  0
 48 50  1  0  0  0
 51 79  1  0  0  0
 53 52  1  0  0  0
 53 54  1  0  0  0
 53 80  1  0  0  0
 54 55  1  0  0  0
 55 56  1  0  0  0
 56 80  1  0  0  0
 57 58  1  0  0  0
 59 58  1  0  0  0
 76 23  1  0  0  0
 79 52  1  0  0  0
 80 57  1  0  0  0
  1 60  2  0  0  0
  6 61  2  0  0  0
  9 10  2  0  0  0
 11 12  2  0  0  0
 13 14  2  0  0  0
 18 63  2  0  0  0
 23 64  2  0  0  0
 29 77  2  0  0  0
 31 65  2  0  0  0
 33 67  2  0  0  0
 37 78  2  0  0  0
 52 71  2  0  0  0
 57 72  2  0  0  0
 58 73  2  0  0  0
M  END
> <rmsd>
0.630622804

$$$$
CHEMBL3746502


 56 61  0  0  0  0  0  0  0  0999 V2000
   -5.2675   -0.5177  -17.4456 C   0  0  0  0  0
   -6.6861   -1.9860  -18.3037 C   0  0  0  0  0
   -7.3492   -0.6604  -18.5936 C   0  0  0  0  0
   -6.4401    0.3338  -17.9025 C   0  0  0  0  0
   -6.9097   -2.9601  -19.4444 C   0  0  0  0  0
   -4.3784   -6.4249  -17.3295 C   0  0  0  0  0
   -2.8784  -11.2886  -18.3538 C   0  0  0  0  0
   -2.9994  -12.7335  -17.8897 C   0  0  0  0  0
   -1.9147  -13.0360  -16.8818 C   0  0  0  0  0
   -1.4788  -14.4406  -17.2322 C   0  0  0  0  0
   -2.3698  -14.8053  -18.4001 C   0  0  0  0  0
   -0.5649  -15.1740  -20.1399 C   0  0  0  0  0
   -0.9717  -17.1734  -20.7396 C   0  0  0  0  0
   -1.0172  -18.4423  -21.3022 C   0  0  0  0  0
   -2.8841  -18.9263  -19.8932 C   0  0  0  0  0
   -1.8691  -16.8264  -19.7921 C   0  0  0  0  0
   -3.5113    1.2323  -17.0639 C   0  0  0  0  0
   -3.3839    2.9862  -15.5321 C   0  0  0  0  0
   -1.5916    2.6205  -17.0638 C   0  0  0  0  0
   -2.3035    1.5455  -17.5771 C   0  0  0  0  0
   -3.0457   -0.1524  -18.6146 C   0  0  0  0  0
   -5.3194   -1.7472  -18.1237 O   0  0  0  0  0
   -7.0503    0.9173  -16.7868 O   0  0  0  0  0
   -8.6502   -0.6483  -18.0749 O   0  0  0  0  0
   -8.0202   -3.7560  -19.1528 O   0  0  0  0  0
   -7.7550   -5.0778  -21.3867 O   0  0  0  0  0
   -6.1753   -5.8637  -19.4663 O   0  0  0  0  0
   -6.5382   -4.8255  -17.0403 O   0  0  0  0  0
   -7.0744   -7.3692  -17.2899 O   0  0  0  0  0
   -2.4044   -8.2523  -17.6723 O   0  0  0  0  0
   -3.9936   -7.9464  -19.7227 O   0  0  0  0  0
   -4.8090   -9.2367  -17.3192 O   0  0  0  0  0
   -5.8811  -11.5642  -17.7987 O   0  0  0  0  0
   -3.8389  -10.9835  -19.3265 O   0  0  0  0  0
   -2.4367  -12.9494  -15.5870 O   0  0  0  0  0
   -2.8667  -13.6221  -18.9704 O   0  0  0  0  0
   -1.6873  -15.3382  -16.1789 O   0  0  0  0  0
   -7.7135   -5.2571  -19.8859 P   0  0  0  0  0
   -6.1052   -6.0729  -17.7758 P   0  0  0  0  0
   -3.8534   -8.0166  -18.0347 P   0  0  0  0  0
   -5.2079  -10.4031  -18.4961 P   0  0  0  0  0
   -6.5709   -9.6235  -19.8602 S   0  0  0  0  0
   -9.2233   -6.5936  -19.3755 S   0  0  0  0  0
   -1.6317  -15.5722  -19.3951 N   0  0  0  0  0
   -0.1282  -16.1508  -20.9880 N   0  0  0  0  0
   -0.0882  -18.8445  -22.3033 N   0  0  0  0  0
   -1.9844  -19.3017  -20.8610 N   0  0  0  0  0
   -2.8316  -17.6719  -19.3468 N   0  0  0  0  0
   -4.0039    0.1666  -17.7041 N   0  0  0  0  0
   -4.0765    1.9242  -16.0453 N   0  0  0  0  0
   -2.1553    3.3266  -16.0400 N   0  0  0  0  0
   -1.9747    0.6900  -18.5633 N   0  0  0  0  0
   -0.3167    2.9828  -17.5813 N   0  0  0  0  0
   -4.1055  -20.0585  -19.3541 Cl  0  0  0  0  0
   -3.3292   -5.1170  -17.9322 Cl  0  0  0  0  0
   -4.0695    3.9179  -14.2209 Cl  0  0  0  0  0
  1 22  1  0  0  0
  1 49  1  0  0  0
  2 22  1  0  0  0
  2  3  1  0  0  0
  2  5  1  0  0  0
  3  4  1  0  0  0
  3 24  1  0  0  0
  4 23  1  0  0  0
  4  1  1  0  0  0
  5 25  1  0  0  0
  6 40  1  0  0  0
  6 55  1  0  0  0
  7 34  1  0  0  0
  8  7  1  0  0  0
  8  9  1  0  0  0
  8 36  1  0  0  0
  9 35  1  0  0  0
  9 10  1  0  0  0
 10 11  1  0  0  0
 10 37  1  0  0  0
 11 36  1  0  0  0
 11 44  1  0  0  0
 13 45  1  0  0  0
 14 46  1  0  0  0
 14 47  1  0  0  0
 15 48  1  0  0  0
 15 54  1  0  0  0
 16 44  1  0  0  0
 16 13  1  0  0  0
 18 50  1  0  0  0
 18 56  1  0  0  0
 19 51  1  0  0  0
 19 53  1  0  0  0
 20 52  1  0  0  0
 20 17  1  0  0  0
 21 49  1  0  0  0
 38 25  1  0  0  0
 38 27  1  0  0  0
 38 43  1  0  0  0
 39 27  1  0  0  0
 39 29  1  0  0  0
 39  6  1  0  0  0
 40 31  1  0  0  0
 40 32  1  0  0  0
 41 32  1  0  0  0
 41 42  1  0  0  0
 41 34  1  0  0  0
 44 12  1  0  0  0
 49 17  1  0  0  0
 12 45  2  0  0  0
 13 14  2  0  0  0
 15 47  2  0  0  0
 16 48  2  0  0  0
 17 50  2  0  0  0
 18 51  2  0  0  0
 19 20  2  0  0  0
 21 52  2  0  0  0
 38 26  2  0  0  0
 39 28  2  0  0  0
 40 30  2  0  0  0
 41 33  2  0  0  0
M  CHG  4  29  -1  31  -1  42  -1  43  -1
M  END
> <rmsd>
0.665993035

$$$$
CHEMBL2326348 PubChem-71601212


 59 65  0  0  0  0  0  0  0  0999 V2000
   -3.8341    4.5123  -18.7317 O   0  0  0  0  0
   -1.8879    4.3917  -17.2344 O   0  0  0  0  0
   -3.7835    2.6030  -16.8996 O   0  0  0  0  0
    1.6270   -0.4724  -22.3826 O   0  0  0  0  0
   -6.5372   -1.9473  -24.5219 O   0  0  0  0  0
   -6.2849   -1.5913  -17.1324 O   0  0  0  0  0
   -8.6630   -0.7725  -17.8857 O   0  0  0  0  0
   -7.3143    0.7359  -16.5034 O   0  0  0  0  0
   -6.6484    0.4366  -18.9919 O   0  0  0  0  0
   -3.8519   -5.6828  -17.8545 O   0  0  0  0  0
   -4.5081   -7.9427  -19.0158 O   0  0  0  0  0
   -2.2784   -7.7752  -18.0055 O   0  0  0  0  0
   -2.7112   -6.5221  -20.2445 O   0  0  0  0  0
   -4.1322    5.2602  -16.2596 O   0  0  0  0  0
   -3.3785    4.2121  -17.3266 S   0  0  0  0  0
   -7.2731   -0.2794  -17.6068 S   0  0  0  0  0
   -3.3372   -7.0326  -18.7705 S   0  0  0  0  0
   -3.2718    1.4851  -17.5630 C   0  0  0  0  0
   -3.5441    0.2162  -17.0524 C   0  0  0  0  0
   -3.0531   -0.9196  -17.7004 C   0  0  0  0  0
   -2.2934   -0.7883  -18.8650 C   0  0  0  0  0
   -1.9952    0.4748  -19.3823 C   0  0  0  0  0
   -1.2415    0.6425  -20.6470 C   0  0  0  0  0
    0.5663    0.1594  -22.1185 C   0  0  0  0  0
    0.0931    1.1176  -23.0214 C   0  0  0  0  0
   -1.0620    1.8382  -22.6869 C   0  0  0  0  0
   -1.5551    2.8185  -23.5536 C   0  0  0  0  0
   -0.9000    3.0789  -24.7597 C   0  0  0  0  0
    0.2505    2.3623  -25.0995 C   0  0  0  0  0
    0.7485    1.3845  -24.2309 C   0  0  0  0  0
    0.4608   -1.0486  -20.0041 C   0  0  0  0  0
   -0.1272   -2.4425  -20.2129 C   0  0  0  0  0
    0.2404   -3.0079  -21.5726 C   0  0  0  0  0
   -0.9182   -3.8197  -22.1302 C   0  0  0  0  0
   -3.9972   -2.0190  -22.3517 C   0  0  0  0  0
   -3.2533   -3.0344  -21.7848 C   0  0  0  0  0
   -5.4218   -1.6920  -22.0455 C   0  0  0  0  0
   -6.5613   -3.8173  -21.5285 C   0  0  0  0  0
   -7.7763   -5.0048  -23.1787 C   0  0  0  0  0
   -7.5409   -3.9794  -24.1075 C   0  0  0  0  0
   -6.7799   -2.8755  -23.7021 C   0  0  0  0  0
   -8.0628   -4.0888  -25.4027 C   0  0  0  0  0
   -8.8122   -5.2120  -25.7666 C   0  0  0  0  0
   -9.0430   -6.2300  -24.8403 C   0  0  0  0  0
   -8.5250   -6.1271  -23.5477 C   0  0  0  0  0
   -6.0754   -3.7683  -20.1379 C   0  0  0  0  0
   -5.2364   -4.7765  -19.6550 C   0  0  0  0  0
   -4.7305   -4.7130  -18.3490 C   0  0  0  0  0
   -5.0915   -3.6427  -17.5228 C   0  0  0  0  0
   -5.9452   -2.6405  -17.9881 C   0  0  0  0  0
   -6.4333   -2.7076  -19.2999 C   0  0  0  0  0
   -2.5043    1.6066  -18.7316 C   0  0  0  0  0
   -0.1066   -0.0793  -20.9481 N   0  0  0  0  0
   -1.6896    1.5898  -21.5170 N   0  0  0  0  0
   -2.0597   -2.9563  -22.3945 N   0  0  0  0  0
   -2.0718   -1.9659  -23.2702 N   0  0  0  0  0
   -3.2532   -1.3712  -23.2683 N   0  0  0  0  0
   -6.2947   -2.8090  -22.4225 N   0  0  0  0  0
   -7.2828   -4.8996  -21.9220 N   0  0  0  0  0
 15  3  1  0  0  0
 15 14  1  0  0  0
 16  6  1  0  0  0
 16  9  1  0  0  0
 17 10  1  0  0  0
 17 13  1  0  0  0
 18  3  1  0  0  0
 19 20  1  0  0  0
 21 22  1  0  0  0
 22 23  1  0  0  0
 23 53  1  0  0  0
 24 25  1  0  0  0
 26 54  1  0  0  0
 26 27  1  0  0  0
 28 29  1  0  0  0
 30 25  1  0  0  0
 31 53  1  0  0  0
 31 32  1  0  0  0
 32 33  1  0  0  0
 33 34  1  0  0  0
 34 55  1  0  0  0
 35 57  1  0  0  0
 36 55  1  0  0  0
 37 35  1  0  0  0
 37 58  1  0  0  0
 38 46  1  0  0  0
 39 59  1  0  0  0
 40 41  1  0  0  0
 40 42  1  0  0  0
 41 58  1  0  0  0
 43 44  1  0  0  0
 45 39  1  0  0  0
 47 48  1  0  0  0
 48 10  1  0  0  0
 49 50  1  0  0  0
 50  6  1  0  0  0
 51 46  1  0  0  0
 52 18  1  0  0  0
 53 24  1  0  0  0
 55 56  1  0  0  0
 58 38  1  0  0  0
 15  1  2  0  0  0
 15  2  2  0  0  0
 16  7  2  0  0  0
 16  8  2  0  0  0
 17 11  2  0  0  0
 17 12  2  0  0  0
 18 19  2  0  0  0
 20 21  2  0  0  0
 22 52  2  0  0  0
 23 54  2  0  0  0
 24  4  2  0  0  0
 25 26  2  0  0  0
 27 28  2  0  0  0
 29 30  2  0  0  0
 35 36  2  0  0  0
 38 59  2  0  0  0
 39 40  2  0  0  0
 41  5  2  0  0  0
 42 43  2  0  0  0
 44 45  2  0  0  0
 46 47  2  0  0  0
 48 49  2  0  0  0
 50 51  2  0  0  0
 56 57  2  0  0  0
M  END
> <rmsd>
0.671730459

$$$$
CHEMBL254791 PubChem-44448654


 54 63  0  0  0  0  0  0  0  0999 V2000
   -5.0411    0.5789  -15.1173 C   0  0  0  0  0
   -5.2403    1.9829  -14.7544 C   0  0  0  0  0
   -5.9489    2.2917  -13.5795 C   0  0  0  0  0
   -6.1366    3.6283  -13.1836 C   0  0  0  0  0
   -5.6104    4.6791  -13.9506 C   0  0  0  0  0
   -4.9056    4.3585  -15.1087 C   0  0  0  0  0
   -4.7268    3.0547  -15.5186 C   0  0  0  0  0
   -3.9767    3.1249  -16.6913 C   0  0  0  0  0
   -3.5782    2.0382  -17.6079 C   0  0  0  0  0
   -3.7009    0.3453  -18.8652 C   0  0  0  0  0
   -4.2774   -0.8285  -19.5396 C   0  0  0  0  0
   -5.3985   -1.5450  -19.1435 C   0  0  0  0  0
   -6.2531   -1.4441  -17.8969 C   0  0  0  0  0
   -5.4664   -1.2280  -16.6496 C   0  0  0  0  0
   -4.3786   -1.9578  -16.1642 C   0  0  0  0  0
   -3.6355   -1.4155  -15.1045 C   0  0  0  0  0
   -3.9521   -0.1412  -14.5976 C   0  0  0  0  0
   -5.8177   -0.0218  -16.1085 C   0  0  0  0  0
   -7.2189   -0.2192  -17.9318 C   0  0  0  0  0
   -8.4764   -2.1514  -17.8666 C   0  0  0  0  0
   -7.1883   -2.6029  -17.7987 C   0  0  0  0  0
   -6.8761   -3.9346  -18.0746 C   0  0  0  0  0
   -7.9021   -4.8126  -18.4441 C   0  0  0  0  0
   -9.2397   -4.3625  -18.4259 C   0  0  0  0  0
   -9.5394   -3.0191  -18.1247 C   0  0  0  0  0
   -7.5772   -6.1730  -19.0042 C   0  0  0  0  0
   -6.2823   -6.2506  -19.8552 C   0  0  0  0  0
   -6.1304   -5.1910  -20.9287 C   0  0  0  0  0
   -4.3824   -3.5227  -21.9048 C   0  0  0  0  0
   -4.9411   -3.1892  -23.2945 C   0  0  0  0  0
   -3.9686   -2.2956  -24.0414 C   0  0  0  0  0
   -6.3117   -2.5279  -23.2573 C   0  0  0  0  0
   -4.5743   -2.4578  -20.8615 C   0  0  0  0  0
   -4.1460   -7.3101  -19.0257 C   0  0  0  0  0
   -2.8699   -7.1555  -18.2499 C   0  0  0  0  0
   -1.6583   -6.8036  -19.1258 C   0  0  0  0  0
   -1.3270   -7.8870  -20.1423 C   0  0  0  0  0
   -1.8339   -5.4629  -19.8195 C   0  0  0  0  0
   -2.3233    1.7581  -18.1082 C   0  0  0  0  0
   -3.7672    4.4845  -16.9105 C   0  0  0  0  0
   -4.4021    1.1600  -18.1135 O   0  0  0  0  0
   -6.8893    0.5473  -16.7735 O   0  0  0  0  0
   -8.5345   -0.7711  -17.8228 O   0  0  0  0  0
   -7.1504   -4.6285  -21.4083 O   0  0  0  0  0
   -5.5605   -2.5020  -20.0132 O   0  0  0  0  0
   -4.3523   -8.3439  -19.7204 O   0  0  0  0  0
   -2.6152   -8.3084  -17.5018 O   0  0  0  0  0
   -4.8152   -4.8384  -21.4064 N   0  0  0  0  0
   -3.7303   -1.4260  -20.6243 N   0  0  0  0  0
   -5.1145   -6.2624  -18.9844 N   0  0  0  0  0
   -2.3925    0.6770  -18.9124 N   0  0  0  0  0
   -4.3343    5.2425  -15.9464 N   0  0  0  0  0
   -0.8232    2.5741  -17.7093 Cl  0  0  0  0  0
   -2.9827    5.1878  -18.3132 Cl  0  0  0  0  0
  1  2  1  0  0  0
  3  4  1  0  0  0
  5  6  1  0  0  0
  7  8  1  0  0  0
  7  2  1  0  0  0
  8  9  1  0  0  0
  9 41  1  0  0  0
 10 41  1  0  0  0
 10 11  1  0  0  0
 11 49  1  0  0  0
 12 45  1  0  0  0
 13 12  1  0  0  0
 13 14  1  0  0  0
 13 21  1  0  0  0
 14 15  1  0  0  0
 16 17  1  0  0  0
 18 42  1  0  0  0
 18  1  1  0  0  0
 19 42  1  0  0  0
 19 43  1  0  0  0
 19 13  1  0  0  0
 20 43  1  0  0  0
 21 22  1  0  0  0
 23 24  1  0  0  0
 25 20  1  0  0  0
 26 23  1  0  0  0
 26 27  1  0  0  0
 27 28  1  0  0  0
 27 50  1  0  0  0
 28 48  1  0  0  0
 29 48  1  0  0  0
 29 30  1  0  0  0
 29 33  1  0  0  0
 30 31  1  0  0  0
 30 32  1  0  0  0
 33 45  1  0  0  0
 35 34  1  0  0  0
 35 36  1  0  0  0
 35 47  1  0  0  0
 36 37  1  0  0  0
 36 38  1  0  0  0
 39 51  1  0  0  0
 39 53  1  0  0  0
 40 52  1  0  0  0
 40 54  1  0  0  0
 50 34  1  0  0  0
 52  6  1  0  0  0
  2  3  2  0  0  0
  4  5  2  0  0  0
  6  7  2  0  0  0
  8 40  2  0  0  0
 10 51  2  0  0  0
 11 12  2  0  0  0
 14 18  2  0  0  0
 15 16  2  0  0  0
 17  1  2  0  0  0
 20 21  2  0  0  0
 22 23  2  0  0  0
 24 25  2  0  0  0
 28 44  2  0  0  0
 33 49  2  0  0  0
 34 46  2  0  0  0
 39  9  2  0  0  0
M  END
> <rmsd>
0.754027486

$$$$
CHEMBL2437489 PubChem-73346532


 56 61  0  0  0  0  0  0  0  0999 V2000
   -6.4180   -5.0511  -16.0816 S   0  0  0  0  0
   -9.9256    2.9972  -21.3038 S   0  0  0  0  0
   -6.8522   -5.6418  -14.7687 O   0  0  0  0  0
   -5.4320   -5.9735  -16.7386 O   0  0  0  0  0
   -5.4161   -3.6285  -19.0565 O   0  0  0  0  0
   -9.2884   -0.0461  -18.1038 O   0  0  0  0  0
   -6.5812    3.3767  -18.1544 O   0  0  0  0  0
   -3.1916    4.0620  -21.4367 O   0  0  0  0  0
   -6.8076   -0.0491  -16.8290 O   0  0  0  0  0
   -7.4359   -5.2515  -21.4008 O   0  0  0  0  0
   -5.2327   -7.7427  -20.2106 O   0  0  0  0  0
   -7.8629   -4.8205  -17.1166 C   0  0  0  0  0
   -7.5479   -4.6342  -18.6039 C   0  0  0  0  0
   -6.6509   -3.4586  -18.8539 C   0  0  0  0  0
   -6.3906   -0.9486  -19.0229 C   0  0  0  0  0
   -6.9176    0.2245  -18.1965 C   0  0  0  0  0
   -8.3216    0.6364  -18.5432 C   0  0  0  0  0
   -9.9420    2.1561  -19.6929 C   0  0  0  0  0
   -8.2004    3.4963  -21.0640 C   0  0  0  0  0
   -8.1982    4.8973  -20.4672 C   0  0  0  0  0
   -7.4971    3.5239  -22.4052 C   0  0  0  0  0
   -7.5405    2.4472  -20.1577 C   0  0  0  0  0
   -6.3923    2.9725  -19.3357 C   0  0  0  0  0
   -3.8961    3.4242  -19.1751 C   0  0  0  0  0
   -2.7576    3.8906  -20.1197 C   0  0  0  0  0
   -1.6377    2.8428  -20.0737 C   0  0  0  0  0
   -2.0778    1.9045  -19.0218 C   0  0  0  0  0
   -3.3149    2.2264  -18.5185 C   0  0  0  0  0
   -3.8974    1.4661  -17.4996 C   0  0  0  0  0
   -3.1988    0.3533  -17.0075 C   0  0  0  0  0
   -1.9352    0.0219  -17.5318 C   0  0  0  0  0
   -1.3642    0.8020  -18.5486 C   0  0  0  0  0
   -6.3375   -0.5821  -20.5045 C   0  0  0  0  0
   -5.3415   -1.4097  -21.2437 C   0  0  0  0  0
   -3.9728   -1.2910  -20.9619 C   0  0  0  0  0
   -3.0462   -2.0535  -21.6791 C   0  0  0  0  0
   -3.4807   -2.9290  -22.6803 C   0  0  0  0  0
   -4.8457   -3.0453  -22.9657 C   0  0  0  0  0
   -5.7739   -2.2825  -22.2491 C   0  0  0  0  0
   -6.9165   -6.0713  -20.5944 C   0  0  0  0  0
   -6.2289   -7.2881  -21.1246 C   0  0  0  0  0
   -4.0013   -7.0966  -20.0231 C   0  0  0  0  0
   -3.6114   -6.0242  -20.8427 C   0  0  0  0  0
   -2.3828   -5.3873  -20.6439 C   0  0  0  0  0
   -1.5273   -5.8124  -19.6247 C   0  0  0  0  0
   -1.9004   -6.8769  -18.8024 C   0  0  0  0  0
   -3.1396   -7.5262  -18.9991 C   0  0  0  0  0
   -3.4936   -8.5888  -18.1602 C   0  0  0  0  0
   -2.6179   -8.9872  -17.1476 C   0  0  0  0  0
   -1.0565   -7.3104  -17.7779 C   0  0  0  0  0
   -5.6415   -3.4818  -15.7697 C   0  0  0  0  0
   -7.2029   -2.1415  -18.8122 N   0  0  0  0  0
   -8.5747    1.7960  -19.3565 N   0  0  0  0  0
   -5.0899    3.0431  -19.9267 N   0  0  0  0  0
   -7.0111   -5.8598  -19.1833 N   0  0  0  0  0
   -1.4298   -8.3470  -16.9793 N   0  0  0  0  0
  1 12  1  0  0  0
  1 51  1  0  0  0
 13 12  1  0  0  0
 13 14  1  0  0  0
 13 55  1  0  0  0
 14 52  1  0  0  0
 15 52  1  0  0  0
 15 16  1  0  0  0
 15 33  1  0  0  0
 16 17  1  0  0  0
 16  9  1  0  0  0
 17 53  1  0  0  0
 18 53  1  0  0  0
 18  2  1  0  0  0
 19  2  1  0  0  0
 19 20  1  0  0  0
 19 21  1  0  0  0
 19 22  1  0  0  0
 22 23  1  0  0  0
 22 53  1  0  0  0
 23 54  1  0  0  0
 24 54  1  0  0  0
 24 25  1  0  0  0
 24 28  1  0  0  0
 25 26  1  0  0  0
 25  8  1  0  0  0
 26 27  1  0  0  0
 28 29  1  0  0  0
 30 31  1  0  0  0
 32 27  1  0  0  0
 33 34  1  0  0  0
 35 36  1  0  0  0
 37 38  1  0  0  0
 39 34  1  0  0  0
 41 40  1  0  0  0
 41 11  1  0  0  0
 42 11  1  0  0  0
 43 44  1  0  0  0
 45 46  1  0  0  0
 47 48  1  0  0  0
 47 42  1  0  0  0
 49 56  1  0  0  0
 50 46  1  0  0  0
 55 40  1  0  0  0
  1  3  2  0  0  0
  1  4  2  0  0  0
 14  5  2  0  0  0
 17  6  2  0  0  0
 23  7  2  0  0  0
 27 28  2  0  0  0
 29 30  2  0  0  0
 31 32  2  0  0  0
 34 35  2  0  0  0
 36 37  2  0  0  0
 38 39  2  0  0  0
 40 10  2  0  0  0
 42 43  2  0  0  0
 44 45  2  0  0  0
 46 47  2  0  0  0
 48 49  2  0  0  0
 50 56  2  0  0  0
M  END
> <rmsd>
0.705917597

$$$$
CHEMBL4301403 PubChem-145947082


 48 52  0  0  0  0  0  0  0  0999 V2000
    0.0360    2.8113  -16.0916 S   0  0  0  0  0
   -1.1186    1.6530  -15.9677 C   0  0  0  0  0
   -2.1301    1.4535  -17.0290 C   0  0  0  0  0
   -3.1271    0.4797  -16.8767 C   0  0  0  0  0
   -5.0806   -0.7401  -17.6280 C   0  0  0  0  0
   -6.3852   -1.6368  -19.2488 C   0  0  0  0  0
   -7.3358   -1.0003  -18.2676 C   0  0  0  0  0
   -6.4494   -0.1154  -17.4606 C   0  0  0  0  0
   -6.8473   -3.0453  -19.5693 C   0  0  0  0  0
   -3.1250   -7.8771  -19.8593 C   0  0  0  0  0
   -2.7238   -9.2636  -19.3748 C   0  0  0  0  0
   -1.0764  -10.7107  -19.1127 C   0  0  0  0  0
    1.2997   -9.9058  -18.8423 C   0  0  0  0  0
    2.2090   -7.8706  -18.1540 C   0  0  0  0  0
    3.6553   -9.6499  -18.8139 C   0  0  0  0  0
    2.5281  -10.4228  -19.0549 C   0  0  0  0  0
    1.0887  -11.9038  -19.5547 C   0  0  0  0  0
   -1.5617  -10.4493  -17.6974 C   0  0  0  0  0
   -2.5987   -9.3748  -17.8633 C   0  0  0  0  0
   -4.0588    1.0278  -18.9878 C   0  0  0  0  0
   -3.0870    2.0098  -19.1858 C   0  0  0  0  0
   -2.1216    2.2203  -18.2016 C   0  0  0  0  0
   -1.1372    0.8322  -14.8028 N   0  0  0  0  0
   -4.0639    0.2826  -17.8449 N   0  0  0  0  0
    0.3754  -10.8221  -19.1520 N   0  0  0  0  0
    1.1034   -8.6405  -18.3954 N   0  0  0  0  0
    3.4690   -8.3736  -18.3631 N   0  0  0  0  0
    4.9650  -10.1554  -19.0444 N   0  0  0  0  0
    2.4349  -11.6886  -19.5055 N   0  0  0  0  0
   -5.0918   -1.6635  -18.6941 O   0  0  0  0  0
   -8.2776   -0.2307  -18.9522 O   0  0  0  0  0
   -6.8286   -0.1587  -16.1201 O   0  0  0  0  0
   -6.0523   -3.5865  -20.5822 O   0  0  0  0  0
   -8.0055   -5.1968  -21.2619 O   0  0  0  0  0
   -6.5285   -5.9865  -19.2506 O   0  0  0  0  0
   -4.7735   -6.7554  -17.4809 O   0  0  0  0  0
   -4.5173   -7.7741  -19.8804 O   0  0  0  0  0
   -1.5077   -9.6615  -19.9391 O   0  0  0  0  0
   -2.1519  -11.6048  -17.1815 O   0  0  0  0  0
    0.1379  -12.4119  -16.1731 O   0  0  0  0  0
   -2.0234  -13.2535  -14.9712 O   0  0  0  0  0
   -1.1805  -10.6387  -14.7635 O   0  0  0  0  0
   -2.0988   -8.1922  -17.3109 O   0  0  0  0  0
   -3.8666   -5.1164  -19.2998 O   0  0  0  0  0
   -5.6055   -5.9748  -21.8992 O   0  0  0  0  0
   -6.5794   -5.1905  -20.7556 P   0  0  0  0  0
   -4.9079   -6.4087  -18.9471 P   0  0  0  0  0
   -1.2609  -11.9842  -15.7869 P   0  0  0  0  0
  2 23  1  0  0  0
  2  3  1  0  0  0
  4 24  1  0  0  0
  5 24  1  0  0  0
  5 30  1  0  0  0
  6 30  1  0  0  0
  6  7  1  0  0  0
  6  9  1  0  0  0
  7 31  1  0  0  0
  7  8  1  0  0  0
  8 32  1  0  0  0
  8  5  1  0  0  0
  9 33  1  0  0  0
 10 37  1  0  0  0
 11 10  1  0  0  0
 11 38  1  0  0  0
 12 38  1  0  0  0
 12 25  1  0  0  0
 12 18  1  0  0  0
 14 26  1  0  0  0
 15 27  1  0  0  0
 15 28  1  0  0  0
 16 29  1  0  0  0
 16 13  1  0  0  0
 17 25  1  0  0  0
 18 39  1  0  0  0
 18 19  1  0  0  0
 19 43  1  0  0  0
 19 11  1  0  0  0
 20 21  1  0  0  0
 22  3  1  0  0  0
 25 13  1  0  0  0
 46 33  1  0  0  0
 46 35  1  0  0  0
 46 45  1  0  0  0
 47 35  1  0  0  0
 47 37  1  0  0  0
 47 44  1  0  0  0
 48 39  1  0  0  0
 48 41  1  0  0  0
 48 42  1  0  0  0
  2  1  2  0  0  0
  3  4  2  0  0  0
 13 26  2  0  0  0
 14 27  2  0  0  0
 15 16  2  0  0  0
 17 29  2  0  0  0
 21 22  2  0  0  0
 24 20  2  0  0  0
 46 34  2  0  0  0
 47 36  2  0  0  0
 48 40  2  0  0  0
M  CHG  2  24   1  45  -1
M  END
> <rmsd>
0.657635927

$$$$
CHEMBL373681 PubChem-44419003


 64 71  0  0  0  0  0  0  0  0999 V2000
   -4.7011   -5.5658  -22.7755 O   0  0  0  0  0
   -7.2993   -2.4674  -18.9427 O   0  0  0  0  0
   -8.5778   -0.8326  -17.9783 O   0  0  0  0  0
   -3.4747   -1.4203  -20.3949 O   0  0  0  0  0
   -2.9104   -3.4982  -21.1697 O   0  0  0  0  0
   -5.1798   -8.6673  -19.0956 O   0  0  0  0  0
   -6.6107   -7.4243  -17.2593 O   0  0  0  0  0
   -6.8193   -5.9343  -15.5021 O   0  0  0  0  0
   -0.7496   -5.6374  -21.5250 O   0  0  0  0  0
   -2.2871   -7.7060  -17.7365 O   0  0  0  0  0
   -6.9117    2.6593  -17.4778 O   0  0  0  0  0
   -6.5087    0.1521  -16.5262 O   0  0  0  0  0
   -7.2209   -4.9094  -22.1622 O   0  0  0  0  0
   -5.9826   -7.3069  -23.5768 O   0  0  0  0  0
   -5.0967   -5.7615  -21.4218 C   0  0  0  0  0
   -6.3695   -4.9355  -21.0517 C   0  0  0  0  0
   -7.1196   -5.6121  -19.8642 C   0  0  0  0  0
   -6.2398   -5.4611  -18.6222 C   0  0  0  0  0
   -5.7719   -4.2276  -18.3185 C   0  0  0  0  0
   -6.0427   -3.0664  -19.2400 C   0  0  0  0  0
   -5.9777   -3.4680  -20.7300 C   0  0  0  0  0
   -7.4256   -1.2832  -18.2112 C   0  0  0  0  0
   -6.2209   -0.5415  -17.7055 C   0  0  0  0  0
   -5.5971    0.3697  -18.7785 C   0  0  0  0  0
   -4.2812    1.0258  -18.3731 C   0  0  0  0  0
   -4.0930    2.3983  -18.5963 C   0  0  0  0  0
   -2.8884    3.0262  -18.2720 C   0  0  0  0  0
   -1.8449    2.2884  -17.7216 C   0  0  0  0  0
   -2.0046    0.9229  -17.4974 C   0  0  0  0  0
   -3.2035    0.2767  -17.8367 C   0  0  0  0  0
   -3.3775   -1.1657  -17.4674 C   0  0  0  0  0
   -2.2072   -2.0396  -17.8022 C   0  0  0  0  0
   -2.0246   -2.6474  -18.9752 C   0  0  0  0  0
   -2.8681   -2.5033  -20.1816 C   0  0  0  0  0
   -2.6457   -4.8881  -20.9512 C   0  0  0  0  0
   -3.8952   -5.6670  -20.4311 C   0  0  0  0  0
   -3.5898   -6.9712  -19.6474 C   0  0  0  0  0
   -4.8243   -7.5096  -18.9132 C   0  0  0  0  0
   -5.6180   -6.6596  -17.9380 C   0  0  0  0  0
   -7.1908   -6.9999  -16.0620 C   0  0  0  0  0
   -8.2601   -7.8172  -15.4360 C   0  0  0  0  0
   -2.5051   -6.6340  -18.6075 C   0  0  0  0  0
   -1.1824   -6.2557  -19.2645 C   0  0  0  0  0
   -1.2799   -5.1467  -20.3198 C   0  0  0  0  0
   -1.9874   -5.4790  -22.1725 C   0  0  0  0  0
   -3.0707   -8.0364  -20.6273 C   0  0  0  0  0
   -7.2466    2.3607  -18.6571 C   0  0  0  0  0
   -8.3395    3.0982  -19.3146 C   0  0  0  0  0
   -9.1132    4.0139  -18.5855 C   0  0  0  0  0
  -10.1683    4.6977  -19.1991 C   0  0  0  0  0
  -10.4576    4.4691  -20.5483 C   0  0  0  0  0
   -9.6910    3.5575  -21.2820 C   0  0  0  0  0
   -8.6352    2.8744  -20.6673 C   0  0  0  0  0
   -4.8317   -4.0063  -17.1766 C   0  0  0  0  0
   -8.4747   -4.9538  -19.6127 C   0  0  0  0  0
   -7.4585   -7.0653  -20.2016 C   0  0  0  0  0
   -5.1151   -6.4177  -23.8024 C   0  0  0  0  0
   -4.5086   -6.2990  -25.1387 C   0  0  0  0  0
   -3.4095   -5.4501  -25.3350 C   0  0  0  0  0
   -2.8048   -5.3505  -26.5936 C   0  0  0  0  0
   -3.2988   -6.0972  -27.6660 C   0  0  0  0  0
   -4.3961   -6.9439  -27.4787 C   0  0  0  0  0
   -4.9980   -7.0466  -26.2185 C   0  0  0  0  0
   -6.5739    1.3026  -19.3554 N   0  0  0  0  0
 15  1  1  0  0  0
 15 16  1  0  0  0
 16 17  1  0  0  0
 16 13  1  0  0  0
 17 18  1  0  0  0
 17 55  1  0  0  0
 17 56  1  0  0  0
 20 19  1  0  0  0
 20 21  1  0  0  0
 20  2  1  0  0  0
 21 16  1  0  0  0
 22  2  1  0  0  0
 23 22  1  0  0  0
 23 24  1  0  0  0
 23 12  1  0  0  0
 24 25  1  0  0  0
 24 64  1  0  0  0
 26 27  1  0  0  0
 28 29  1  0  0  0
 30 25  1  0  0  0
 31 30  1  0  0  0
 31 32  1  0  0  0
 33 34  1  0  0  0
 34  5  1  0  0  0
 35  5  1  0  0  0
 35 36  1  0  0  0
 35 45  1  0  0  0
 36 37  1  0  0  0
 36 15  1  0  0  0
 37 38  1  0  0  0
 37 42  1  0  0  0
 37 46  1  0  0  0
 39 38  1  0  0  0
 39  7  1  0  0  0
 39 18  1  0  0  0
 40  7  1  0  0  0
 41 40  1  0  0  0
 42 43  1  0  0  0
 42 10  1  0  0  0
 44 43  1  0  0  0
 44  9  1  0  0  0
 44 35  1  0  0  0
 45  9  1  0  0  0
 47 48  1  0  0  0
 49 50  1  0  0  0
 51 52  1  0  0  0
 53 48  1  0  0  0
 54 19  1  0  0  0
 57  1  1  0  0  0
 57 58  1  0  0  0
 59 60  1  0  0  0
 61 62  1  0  0  0
 63 58  1  0  0  0
 64 47  1  0  0  0
 18 19  2  0  0  0
 22  3  2  0  0  0
 25 26  2  0  0  0
 27 28  2  0  0  0
 29 30  2  0  0  0
 32 33  2  0  0  0
 34  4  2  0  0  0
 38  6  2  0  0  0
 40  8  2  0  0  0
 47 11  2  0  0  0
 48 49  2  0  0  0
 50 51  2  0  0  0
 52 53  2  0  0  0
 57 14  2  0  0  0
 58 59  2  0  0  0
 60 61  2  0  0  0
 62 63  2  0  0  0
M  END
> <rmsd>
0.752742112

$$$$
CHEMBL508570 PubChem-16143735


 78 88  0  0  0  0  0  0  0  0999 V2000
   -5.1335    1.4940  -17.1376 C   0  0  0  0  0
   -6.0534    0.5858  -16.6058 C   0  0  0  0  0
   -5.8556   -0.8065  -16.7338 C   0  0  0  0  0
   -6.8741   -1.7068  -16.1331 C   0  0  0  0  0
   -6.5831   -2.3825  -14.9294 C   0  0  0  0  0
   -7.5620   -3.1698  -14.3070 C   0  0  0  0  0
   -8.8420   -3.2617  -14.8616 C   0  0  0  0  0
   -9.1470   -2.5677  -16.0306 C   0  0  0  0  0
   -8.1749   -1.8043  -16.6830 C   0  0  0  0  0
   -8.5685   -1.0718  -17.9009 C   0  0  0  0  0
   -7.7560   -2.8150  -19.4688 C   0  0  0  0  0
   -8.9732   -3.6908  -19.7611 C   0  0  0  0  0
   -8.5384   -4.9230  -20.5429 C   0  0  0  0  0
   -7.9145   -4.4928  -21.8745 C   0  0  0  0  0
   -6.7871   -2.7933  -20.6631 C   0  0  0  0  0
   -5.5345   -3.6004  -20.3611 C   0  0  0  0  0
   -3.2645   -3.9359  -21.2732 C   0  0  0  0  0
   -2.9577   -5.0249  -20.3212 C   0  0  0  0  0
   -1.7840   -5.0243  -19.5281 C   0  0  0  0  0
   -1.1965   -2.5973  -19.3614 C   0  0  0  0  0
   -0.2945   -1.6447  -19.8657 C   0  0  0  0  0
   -0.5531   -0.2790  -19.7336 C   0  0  0  0  0
   -1.7112    0.1620  -19.0854 C   0  0  0  0  0
   -2.0057    1.5261  -18.9296 C   0  0  0  0  0
   -3.9931    1.0344  -17.7942 C   0  0  0  0  0
   -3.7685   -0.3500  -17.9109 C   0  0  0  0  0
   -2.6110   -0.7807  -18.5645 C   0  0  0  0  0
   -2.3633   -2.1582  -18.6864 C   0  0  0  0  0
   -4.3530   -2.6638  -17.5472 C   0  0  0  0  0
   -4.6803   -1.2896  -17.3837 C   0  0  0  0  0
   -1.5001   -6.1284  -18.7126 C   0  0  0  0  0
   -2.3927   -7.2029  -18.6390 C   0  0  0  0  0
   -3.5711   -7.1834  -19.3902 C   0  0  0  0  0
   -3.8444   -6.1066  -20.2314 C   0  0  0  0  0
   -9.7448   -7.0151  -20.1496 C   0  0  0  0  0
  -11.0567   -7.5586  -19.7038 C   0  0  0  0  0
  -12.2807   -6.8283  -19.7403 C   0  0  0  0  0
  -12.3996   -5.4660  -20.3291 C   0  0  0  0  0
  -11.8370   -4.3283  -19.7001 C   0  0  0  0  0
  -10.9775   -4.4388  -18.5062 C   0  0  0  0  0
  -11.9985   -3.0654  -20.2805 C   0  0  0  0  0
  -12.7241   -2.9092  -21.4601 C   0  0  0  0  0
  -13.2832   -4.0243  -22.0874 C   0  0  0  0  0
  -13.1260   -5.2984  -21.5269 C   0  0  0  0  0
  -13.4511   -7.4187  -19.2139 C   0  0  0  0  0
  -13.4185   -8.7081  -18.6721 C   0  0  0  0  0
  -12.2211   -9.4214  -18.6454 C   0  0  0  0  0
  -11.0574   -8.8482  -19.1515 C   0  0  0  0  0
   -9.2658   -0.0306  -17.7860 O   0  0  0  0  0
   -8.1807   -1.4898  -19.1785 O   0  0  0  0  0
   -7.3949   -3.1657  -21.8949 O   0  0  0  0  0
   -4.5289   -3.3404  -21.3293 O   0  0  0  0  0
   -2.3685   -3.5304  -22.0587 O   0  0  0  0  0
   -0.8784   -3.9560  -19.5322 O   0  0  0  0  0
   -1.2262    2.4061  -19.3831 O   0  0  0  0  0
   -3.1168    1.9031  -18.2995 O   0  0  0  0  0
   -3.2286   -3.0245  -18.1660 O   0  0  0  0  0
   -5.1195   -3.5724  -17.1338 O   0  0  0  0  0
    0.8673   -2.0559  -20.5098 O   0  0  0  0  0
   -4.4736   -8.2359  -19.3063 O   0  0  0  0  0
   -2.1080   -8.2879  -17.8173 O   0  0  0  0  0
   -0.3324   -6.1475  -17.9586 O   0  0  0  0  0
   -6.9431   -5.4135  -22.2775 O   0  0  0  0  0
   -9.6531   -5.7724  -20.7732 O   0  0  0  0  0
   -8.6861   -7.6583  -19.9031 O   0  0  0  0  0
  -11.4561   -4.8943  -17.4323 O   0  0  0  0  0
   -9.6300   -4.0614  -18.5499 O   0  0  0  0  0
  -13.6835   -6.3991  -22.1701 O   0  0  0  0  0
  -13.9914   -3.8685  -23.2740 O   0  0  0  0  0
  -12.8786   -1.6427  -22.0105 O   0  0  0  0  0
  -12.1776  -10.7009  -18.1063 O   0  0  0  0  0
  -14.5768   -9.2772  -18.1536 O   0  0  0  0  0
  -14.6540   -6.7175  -19.2170 O   0  0  0  0  0
   -9.8195   -4.0381  -14.2516 O   0  0  0  0  0
   -7.2637   -3.8508  -13.1332 O   0  0  0  0  0
   -5.3255   -2.2667  -14.3453 O   0  0  0  0  0
   -7.1659    1.0767  -15.9268 O   0  0  0  0  0
   -5.3516    2.8614  -17.0039 O   0  0  0  0  0
  1 78  1  0  0  0
  2  3  1  0  0  0
  2 77  1  0  0  0
  3  4  1  0  0  0
  5  6  1  0  0  0
  5 76  1  0  0  0
  6 75  1  0  0  0
  7  8  1  0  0  0
  7 74  1  0  0  0
  9 10  1  0  0  0
  9  4  1  0  0  0
 10 50  1  0  0  0
 11 50  1  0  0  0
 11 12  1  0  0  0
 12 13  1  0  0  0
 12 67  1  0  0  0
 13 14  1  0  0  0
 13 64  1  0  0  0
 14 51  1  0  0  0
 14 63  1  0  0  0
 15 51  1  0  0  0
 15 16  1  0  0  0
 15 11  1  0  0  0
 16 52  1  0  0  0
 17 52  1  0  0  0
 17 18  1  0  0  0
 19 54  1  0  0  0
 19 31  1  0  0  0
 20 54  1  0  0  0
 21 22  1  0  0  0
 21 59  1  0  0  0
 23 24  1  0  0  0
 24 56  1  0  0  0
 25 56  1  0  0  0
 25  1  1  0  0  0
 26 27  1  0  0  0
 27 23  1  0  0  0
 28 57  1  0  0  0
 28 20  1  0  0  0
 29 57  1  0  0  0
 29 30  1  0  0  0
 30 26  1  0  0  0
 31 62  1  0  0  0
 32 33  1  0  0  0
 32 61  1  0  0  0
 33 60  1  0  0  0
 34 18  1  0  0  0
 35 64  1  0  0  0
 35 36  1  0  0  0
 37 38  1  0  0  0
 37 45  1  0  0  0
 39 40  1  0  0  0
 39 41  1  0  0  0
 40 67  1  0  0  0
 42 43  1  0  0  0
 42 70  1  0  0  0
 43 69  1  0  0  0
 44 68  1  0  0  0
 44 38  1  0  0  0
 45 73  1  0  0  0
 46 47  1  0  0  0
 46 72  1  0  0  0
 47 71  1  0  0  0
 48 36  1  0  0  0
  1  2  2  0  0  0
  4  5  2  0  0  0
  6  7  2  0  0  0
  8  9  2  0  0  0
 10 49  2  0  0  0
 17 53  2  0  0  0
 18 19  2  0  0  0
 20 21  2  0  0  0
 22 23  2  0  0  0
 24 55  2  0  0  0
 25 26  2  0  0  0
 27 28  2  0  0  0
 29 58  2  0  0  0
 30  3  2  0  0  0
 31 32  2  0  0  0
 33 34  2  0  0  0
 35 65  2  0  0  0
 36 37  2  0  0  0
 38 39  2  0  0  0
 40 66  2  0  0  0
 41 42  2  0  0  0
 43 44  2  0  0  0
 45 46  2  0  0  0
 47 48  2  0  0  0
M  END
> <rmsd>
0.72767365

$$$$
CHEMBL265885 PubChem-44405111


 66 71  0  0  0  0  0  0  0  0999 V2000
   -4.9789   -0.9857  -14.3852 O   0  0  0  0  0
   -2.3621    0.0592  -15.5205 O   0  0  0  0  0
   -6.6441    0.2316  -16.9632 O   0  0  0  0  0
   -5.2951    2.3395  -19.4442 O   0  0  0  0  0
   -7.1016   -0.0801  -20.5059 O   0  0  0  0  0
   -9.2773   -0.9089  -17.8731 O   0  0  0  0  0
   -7.7005   -3.1683  -17.2968 O   0  0  0  0  0
   -8.8339   -4.0358  -19.1393 O   0  0  0  0  0
   -9.2252   -6.6648  -17.8479 O   0  0  0  0  0
   -7.6915   -5.0775  -21.7461 O   0  0  0  0  0
   -6.5874   -6.9519  -18.8765 O   0  0  0  0  0
   -4.7496   -8.0494  -19.8072 O   0  0  0  0  0
   -2.2103   -8.0168  -17.2427 O   0  0  0  0  0
   -3.2305  -10.6689  -18.7117 O   0  0  0  0  0
   -5.3786  -10.9955  -20.2196 O   0  0  0  0  0
   -4.9322  -13.2300  -19.8924 O   0  0  0  0  0
   -3.6448  -15.7669  -19.8040 O   0  0  0  0  0
   -7.0242  -16.1691  -20.3590 O   0  0  0  0  0
   -7.7459  -14.4619  -22.5862 O   0  0  0  0  0
   -9.6542  -13.3747  -23.3577 O   0  0  0  0  0
   -8.8858  -12.4116  -26.7065 O   0  0  0  0  0
   -9.5253  -15.2038  -26.5045 O   0  0  0  0  0
  -10.3072  -17.2233  -24.6396 O   0  0  0  0  0
  -11.1488  -15.6962  -22.5196 O   0  0  0  0  0
   -5.6934  -12.6311  -22.5398 O   0  0  0  0  0
   -7.8090   -9.7889  -19.7486 O   0  0  0  0  0
   -5.3912   -4.6679  -18.0507 O   0  0  0  0  0
   -4.3496   -1.2515  -15.4461 C   0  0  0  0  0
   -2.8578   -1.2727  -15.4315 C   0  0  0  0  0
   -2.2983    0.7686  -16.7252 C   0  0  0  0  0
   -2.4577    0.1290  -17.9648 C   0  0  0  0  0
   -2.4076    0.8720  -19.1485 C   0  0  0  0  0
   -2.2016    2.2566  -19.0956 C   0  0  0  0  0
   -2.0477    2.9004  -17.8627 C   0  0  0  0  0
   -2.1007    2.1588  -16.6787 C   0  0  0  0  0
   -6.4666   -1.1641  -16.7974 C   0  0  0  0  0
   -6.3919    0.5675  -18.3069 C   0  0  0  0  0
   -6.2111    2.0691  -18.4350 C   0  0  0  0  0
   -7.5531    0.0995  -19.1990 C   0  0  0  0  0
   -8.1706   -1.2022  -18.6788 C   0  0  0  0  0
   -7.1322   -2.0221  -17.8906 C   0  0  0  0  0
   -7.7653   -4.2294  -18.2317 C   0  0  0  0  0
   -9.1040   -5.2479  -19.8134 C   0  0  0  0  0
   -9.9085   -6.2678  -18.9949 C   0  0  0  0  0
   -7.9030   -5.8268  -20.5863 C   0  0  0  0  0
   -6.6087   -5.8515  -19.7511 C   0  0  0  0  0
   -6.1585   -8.0541  -19.6348 C   0  0  0  0  0
   -4.1527   -8.4099  -18.5831 C   0  0  0  0  0
   -2.7005   -7.9514  -18.5490 C   0  0  0  0  0
   -4.3379   -9.9165  -18.3053 C   0  0  0  0  0
   -5.6271  -10.4560  -18.9481 C   0  0  0  0  0
   -5.9311  -12.2794  -20.1744 C   0  0  0  0  0
   -5.6090  -14.4098  -19.5198 C   0  0  0  0  0
   -4.6253  -15.3897  -18.8871 C   0  0  0  0  0
   -6.3148  -15.0276  -20.7409 C   0  0  0  0  0
   -7.2809  -14.0039  -21.3475 C   0  0  0  0  0
   -9.1443  -14.3855  -22.5084 C   0  0  0  0  0
   -9.2763  -13.6401  -24.6914 C   0  0  0  0  0
   -9.6620  -12.4442  -25.5445 C   0  0  0  0  0
   -9.9478  -14.9232  -25.2035 C   0  0  0  0  0
   -9.5705  -16.0885  -24.2931 C   0  0  0  0  0
   -9.7830  -15.7420  -22.8176 C   0  0  0  0  0
   -6.6239  -12.6222  -21.4936 C   0  0  0  0  0
   -6.7026   -9.3563  -19.0192 C   0  0  0  0  0
   -6.4436   -4.5493  -18.9640 C   0  0  0  0  0
   -5.0540   -1.4899  -16.6688 N   0  0  0  0  0
 28 66  1  0  0  0
 29 28  1  0  0  0
 29  2  1  0  0  0
 30  2  1  0  0  0
 31 32  1  0  0  0
 33 34  1  0  0  0
 35 30  1  0  0  0
 36 66  1  0  0  0
 36  3  1  0  0  0
 37  3  1  0  0  0
 37 38  1  0  0  0
 37 39  1  0  0  0
 38  4  1  0  0  0
 39  5  1  0  0  0
 39 40  1  0  0  0
 40  6  1  0  0  0
 40 41  1  0  0  0
 41  7  1  0  0  0
 41 36  1  0  0  0
 42  7  1  0  0  0
 42  8  1  0  0  0
 43  8  1  0  0  0
 43 44  1  0  0  0
 43 45  1  0  0  0
 44  9  1  0  0  0
 45 10  1  0  0  0
 45 46  1  0  0  0
 46 11  1  0  0  0
 46 65  1  0  0  0
 47 11  1  0  0  0
 47 12  1  0  0  0
 48 12  1  0  0  0
 48 49  1  0  0  0
 48 50  1  0  0  0
 49 13  1  0  0  0
 50 14  1  0  0  0
 50 51  1  0  0  0
 51 15  1  0  0  0
 51 64  1  0  0  0
 52 15  1  0  0  0
 52 16  1  0  0  0
 53 16  1  0  0  0
 53 54  1  0  0  0
 53 55  1  0  0  0
 54 17  1  0  0  0
 55 18  1  0  0  0
 55 56  1  0  0  0
 56 19  1  0  0  0
 56 63  1  0  0  0
 57 19  1  0  0  0
 57 20  1  0  0  0
 58 20  1  0  0  0
 58 59  1  0  0  0
 58 60  1  0  0  0
 59 21  1  0  0  0
 60 22  1  0  0  0
 60 61  1  0  0  0
 61 23  1  0  0  0
 61 62  1  0  0  0
 62 24  1  0  0  0
 62 57  1  0  0  0
 63 25  1  0  0  0
 63 52  1  0  0  0
 64 26  1  0  0  0
 64 47  1  0  0  0
 65 27  1  0  0  0
 65 42  1  0  0  0
 28  1  2  0  0  0
 30 31  2  0  0  0
 32 33  2  0  0  0
 34 35  2  0  0  0
M  END
> <rmsd>
0.554160893

$$$$
CHEMBL505121 MolPort-046-162-809 PubChem-129316182 PubChem-44571034


 64 66  0  0  0  0  0  0  0  0999 V2000
   -3.8264  -24.6514  -24.8478 C   0  0  0  0  0
   -3.2453  -23.3133  -25.1254 C   0  0  0  0  0
   -1.2416  -21.7737  -25.0632 C   0  0  0  0  0
   -1.2213  -20.9622  -23.7727 C   0  0  0  0  0
   -2.5953  -20.3954  -23.4349 C   0  0  0  0  0
   -3.0226  -19.3177  -24.4267 C   0  0  0  0  0
   -2.1183  -18.0944  -24.3515 C   0  0  0  0  0
   -3.4755  -16.6131  -22.8027 C   0  0  0  0  0
   -3.5832  -15.9004  -21.4983 C   0  0  0  0  0
   -1.0680  -15.2034  -21.1367 C   0  0  0  0  0
    0.0919  -14.2307  -21.2224 C   0  0  0  0  0
   -0.0643  -11.9499  -20.1657 C   0  0  0  0  0
    0.0086  -11.1054  -18.9403 C   0  0  0  0  0
   -1.3669  -10.9306  -18.3175 C   0  0  0  0  0
   -2.6265   -8.7730  -18.6423 C   0  0  0  0  0
   -3.4410   -7.8684  -19.5168 C   0  0  0  0  0
   -2.7328   -7.4229  -20.8188 C   0  0  0  0  0
   -2.6418   -8.5633  -21.8241 C   0  0  0  0  0
   -1.3236   -6.9415  -20.5172 C   0  0  0  0  0
   -3.4732   -6.2400  -21.4436 C   0  0  0  0  0
   -6.0988   -1.5272  -18.7877 C   0  0  0  0  0
   -5.4036   -1.0864  -17.5090 C   0  0  0  0  0
   -3.6881    0.2576  -16.9012 C   0  0  0  0  0
   -4.9265    0.8264  -16.2307 C   0  0  0  0  0
   -6.0512    0.1641  -16.9778 C   0  0  0  0  0
   -2.8491    1.4225  -18.9923 C   0  0  0  0  0
   -1.8492    3.1026  -18.1658 C   0  0  0  0  0
   -1.1442    4.2662  -17.8948 C   0  0  0  0  0
   -1.5146    3.8691  -15.5715 C   0  0  0  0  0
   -2.3563    2.3714  -17.1509 C   0  0  0  0  0
    0.1518  -21.9663  -25.5614 C   0  0  0  0  0
   -3.9695  -22.4089  -25.6201 O   0  0  0  0  0
   -4.3981  -16.4994  -23.6539 O   0  0  0  0  0
   -0.2957  -11.4164  -21.2844 O   0  0  0  0  0
   -2.3529   -8.4091  -17.4684 O   0  0  0  0  0
   -4.6799   -8.4583  -19.7812 O   0  0  0  0  0
   -4.7573   -6.5963  -21.8750 O   0  0  0  0  0
   -7.3574   -5.7043  -21.8058 O   0  0  0  0  0
   -5.3407   -4.0401  -21.8431 O   0  0  0  0  0
   -5.7323   -5.3900  -19.5830 O   0  0  0  0  0
   -6.7189   -4.1154  -17.3527 O   0  0  0  0  0
   -7.8212   -3.7613  -19.6912 O   0  0  0  0  0
   -5.4576   -2.6454  -19.3268 O   0  0  0  0  0
   -4.0527   -0.7995  -17.7642 O   0  0  0  0  0
   -4.9231    0.4497  -14.8847 O   0  0  0  0  0
   -7.1338   -0.1442  -16.1430 O   0  0  0  0  0
   -9.7376    0.6403  -15.6563 O   0  0  0  0  0
   -7.9939    2.4044  -16.8542 O   0  0  0  0  0
   -8.8578    0.2608  -18.0871 O   0  0  0  0  0
    0.4862  -21.4857  -26.6740 O   0  0  0  0  0
   -1.8684  -23.0695  -24.8397 N   0  0  0  0  0
   -2.3075  -17.3860  -23.0925 N   0  0  0  0  0
    0.0982  -13.3633  -20.0552 N   0  0  0  0  0
   -2.1704  -10.0346  -19.1329 N   0  0  0  0  0
   -2.9959    1.3072  -17.6457 N   0  0  0  0  0
   -2.1413    2.5319  -19.3490 N   0  0  0  0  0
   -0.5976    5.0644  -18.9387 N   0  0  0  0  0
   -0.9899    4.6292  -16.5867 N   0  0  0  0  0
   -2.2084    2.7230  -15.8489 N   0  0  0  0  0
    1.1062  -22.6864  -24.7865 N   0  0  0  0  0
   -2.6249  -14.3578  -21.5488 S   0  0  0  0  0
   -5.7814   -5.3782  -21.2866 P   0  0  0  0  0
   -6.4790   -3.9668  -19.0216 P   0  0  0  0  0
   -8.4365    0.7753  -16.7291 P   0  0  0  0  0
  1  2  1  0  0  0
  2 51  1  0  0  0
  3 51  1  0  0  0
  3  4  1  0  0  0
  3 31  1  0  0  0
  4  5  1  0  0  0
  5  6  1  0  0  0
  6  7  1  0  0  0
  7 52  1  0  0  0
  9  8  1  0  0  0
  9 61  1  0  0  0
 10 61  1  0  0  0
 10 11  1  0  0  0
 11 53  1  0  0  0
 13 12  1  0  0  0
 13 14  1  0  0  0
 14 54  1  0  0  0
 16 15  1  0  0  0
 16 36  1  0  0  0
 16 17  1  0  0  0
 17 18  1  0  0  0
 17 19  1  0  0  0
 17 20  1  0  0  0
 20 37  1  0  0  0
 21 43  1  0  0  0
 22 21  1  0  0  0
 22 44  1  0  0  0
 23 44  1  0  0  0
 23 24  1  0  0  0
 23 55  1  0  0  0
 24 45  1  0  0  0
 24 25  1  0  0  0
 25 46  1  0  0  0
 25 22  1  0  0  0
 27 56  1  0  0  0
 28 57  1  0  0  0
 28 58  1  0  0  0
 29 59  1  0  0  0
 30 55  1  0  0  0
 30 27  1  0  0  0
 31 60  1  0  0  0
 52  8  1  0  0  0
 53 12  1  0  0  0
 54 15  1  0  0  0
 55 26  1  0  0  0
 62 37  1  0  0  0
 62 38  1  0  0  0
 62 40  1  0  0  0
 63 40  1  0  0  0
 63 41  1  0  0  0
 63 43  1  0  0  0
 64 46  1  0  0  0
 64 47  1  0  0  0
 64 48  1  0  0  0
  2 32  2  0  0  0
  8 33  2  0  0  0
 12 34  2  0  0  0
 15 35  2  0  0  0
 26 56  2  0  0  0
 27 28  2  0  0  0
 29 58  2  0  0  0
 30 59  2  0  0  0
 31 50  2  0  0  0
 62 39  2  0  0  0
 63 42  2  0  0  0
 64 49  2  0  0  0
M  END
> <rmsd>
0.631882668

$$$$
CHEMBL1672108 PubChem-53321667 PubChem-644357


 46 50  0  0  0  0  0  0  0  0999 V2000
    0.2103    2.6313  -20.1909 N   0  0  0  0  0
   -1.3413    1.4247  -21.6109 N   0  0  0  0  0
   -3.3663    0.5079  -20.7618 N   0  0  0  0  0
   -1.7851    2.0420  -18.0361 N   0  0  0  0  0
   -3.6999    0.8925  -18.3969 N   0  0  0  0  0
   -8.6802    2.4755  -20.4057 N   0  0  0  0  0
  -11.6689    3.1858  -16.7463 N   0  0  0  0  0
   -8.0425    0.2150  -15.7927 N   0  0  0  0  0
   -1.0014    1.9088  -20.3786 C   0  0  0  0  0
   -2.5099    0.7322  -21.8050 C   0  0  0  0  0
   -3.0183    0.9886  -19.5441 C   0  0  0  0  0
   -1.8768    1.6758  -19.3278 C   0  0  0  0  0
   -2.9295    1.5417  -17.4883 C   0  0  0  0  0
   -4.9812    0.2455  -18.1467 C   0  0  0  0  0
   -6.2507   -1.4149  -18.9388 C   0  0  0  0  0
   -6.2422   -2.4397  -20.0591 C   0  0  0  0  0
   -6.9438   -0.1538  -19.4057 C   0  0  0  0  0
   -8.1803    1.2472  -18.1635 C   0  0  0  0  0
   -6.0839    0.9434  -18.9102 C   0  0  0  0  0
   -9.0199    2.2152  -19.0287 C   0  0  0  0  0
  -10.1207    2.8054  -18.5475 C   0  0  0  0  0
  -10.5908    2.5987  -17.1792 C   0  0  0  0  0
   -9.8224    1.7061  -16.3147 C   0  0  0  0  0
   -8.7194    1.0732  -16.7325 C   0  0  0  0  0
   -4.9351   -1.0948  -18.5620 O   0  0  0  0  0
   -5.6086   -3.6090  -19.6311 O   0  0  0  0  0
   -7.4542   -4.9661  -20.9449 O   0  0  0  0  0
   -8.0083   -4.3366  -18.4742 O   0  0  0  0  0
   -6.1375   -6.2722  -19.0542 O   0  0  0  0  0
   -4.1914   -5.7538  -20.8001 O   0  0  0  0  0
   -6.0389   -7.4237  -21.5678 O   0  0  0  0  0
   -4.1837   -8.1489  -19.6810 O   0  0  0  0  0
   -2.0054   -6.7101  -19.2986 O   0  0  0  0  0
   -2.2941   -8.8126  -17.7869 O   0  0  0  0  0
   -3.8183   -6.5544  -17.4092 O   0  0  0  0  0
   -8.1859   -0.0209  -18.7823 O   0  0  0  0  0
   -6.8598    1.7374  -18.0628 O   0  0  0  0  0
   -9.5603    2.8550  -21.2072 O   0  0  0  0  0
   -7.3761    2.4461  -20.8373 O   0  0  0  0  0
  -12.3823    4.0320  -17.5648 O   0  0  0  0  0
  -12.1242    2.9650  -15.4642 O   0  0  0  0  0
   -8.4014    0.1789  -14.5959 O   0  0  0  0  0
   -7.0302   -0.6204  -16.1982 O   0  0  0  0  0
   -6.8165   -4.8014  -19.5815 P   0  0  0  0  0
   -5.1030   -6.8470  -20.2827 P   0  0  0  0  0
   -3.0549   -7.5217  -18.5710 P   0  0  0  0  0
  1  9  1  0  0  0
  5 11  1  0  0  0
  6 39  1  0  0  0
  7 40  1  0  0  0
  7 41  1  0  0  0
  8 43  1  0  0  0
 10  2  1  0  0  0
 11  3  1  0  0  0
 12  4  1  0  0  0
 12  9  1  0  0  0
 13  5  1  0  0  0
 14  5  1  0  0  0
 14 25  1  0  0  0
 15 25  1  0  0  0
 15 16  1  0  0  0
 15 17  1  0  0  0
 16 26  1  0  0  0
 17 36  1  0  0  0
 18 36  1  0  0  0
 18 37  1  0  0  0
 18 20  1  0  0  0
 18 24  1  0  0  0
 19 37  1  0  0  0
 19 14  1  0  0  0
 19 17  1  0  0  0
 20  6  1  0  0  0
 21 22  1  0  0  0
 22 23  1  0  0  0
 24  8  1  0  0  0
 44 26  1  0  0  0
 44 28  1  0  0  0
 44 29  1  0  0  0
 45 29  1  0  0  0
 45 31  1  0  0  0
 45 32  1  0  0  0
 46 32  1  0  0  0
 46 34  1  0  0  0
 46 35  1  0  0  0
  6 38  2  0  0  0
  8 42  2  0  0  0
  9  2  2  0  0  0
 10  3  2  0  0  0
 11 12  2  0  0  0
 13  4  2  0  0  0
 20 21  2  0  0  0
 22  7  2  0  0  0
 23 24  2  0  0  0
 44 27  2  0  0  0
 45 30  2  0  0  0
 46 33  2  0  0  0
M  CHG  8  28  -1  31  -1  34  -1  35  -1   6   1  39  -1   7   1  40  -1
M  CHG  3  41  -1   8   1  43  -1
M  END
> <rmsd>
0.822105229

$$$$
CHEMBL2397075


 62 68  0  0  0  0  0  0  0  0999 V2000
   -7.5883   -1.4715  -19.7837 C   0  0  0  0  0
   -7.7480   -0.9978  -18.4940 C   0  0  0  0  0
   -7.0771   -1.6340  -17.4249 C   0  0  0  0  0
   -7.0214   -1.0432  -16.1433 C   0  0  0  0  0
   -6.1159   -1.5345  -15.1839 C   0  0  0  0  0
   -5.3732   -2.6872  -15.4645 C   0  0  0  0  0
   -4.1307   -2.8873  -14.6408 C   0  0  0  0  0
   -2.8514   -2.6844  -15.4470 C   0  0  0  0  0
   -2.7187   -1.3075  -17.4954 C   0  0  0  0  0
   -2.6135    0.0329  -18.1236 C   0  0  0  0  0
   -1.7508    0.2384  -19.2366 C   0  0  0  0  0
   -1.6148    1.5100  -19.8006 C   0  0  0  0  0
   -2.3289    2.5898  -19.2800 C   0  0  0  0  0
   -3.1888    2.4032  -18.1895 C   0  0  0  0  0
   -3.3349    1.1396  -17.6045 C   0  0  0  0  0
   -4.2966    1.0095  -16.4644 C   0  0  0  0  0
   -1.6556   -2.7449  -14.5040 C   0  0  0  0  0
   -5.6620   -3.4842  -16.6107 C   0  0  0  0  0
   -6.3984   -2.8660  -17.6597 C   0  0  0  0  0
   -6.4230   -3.4434  -18.9577 C   0  0  0  0  0
   -6.8609   -2.6316  -20.0400 C   0  0  0  0  0
   -6.9321   -2.1796  -22.4852 C   0  0  0  0  0
   -5.8977   -4.7529  -19.1452 C   0  0  0  0  0
   -6.1912   -5.5358  -20.2945 C   0  0  0  0  0
   -5.4379   -6.6735  -20.5626 C   0  0  0  0  0
   -4.5366   -7.1668  -19.6386 C   0  0  0  0  0
   -4.4588   -6.5838  -18.3550 C   0  0  0  0  0
   -5.1484   -5.3662  -18.1006 C   0  0  0  0  0
   -5.1365   -4.8031  -16.7960 C   0  0  0  0  0
   -4.7274   -5.6482  -15.7089 C   0  0  0  0  0
   -3.9936   -6.8325  -15.9789 C   0  0  0  0  0
   -3.7743   -7.2277  -17.3108 C   0  0  0  0  0
   -3.0149   -8.9328  -14.9943 C   0  0  0  0  0
   -5.3817   -5.4586  -14.3406 C   0  0  0  0  0
   -4.6063   -5.9545  -13.1151 C   0  0  0  0  0
   -3.2657   -5.2509  -12.9751 C   0  0  0  0  0
   -5.0255   -6.3371  -10.7090 C   0  0  0  0  0
   -5.7110   -5.9290   -9.4551 C   0  0  0  0  0
   -7.0413   -5.4417   -9.4644 C   0  0  0  0  0
   -7.6533   -5.0615   -8.2708 C   0  0  0  0  0
   -6.9680   -5.1514   -7.0622 C   0  0  0  0  0
   -5.6610   -5.6243   -7.0387 C   0  0  0  0  0
   -5.0284   -6.0101   -8.2183 C   0  0  0  0  0
   -7.8560   -5.3548  -10.7100 C   0  0  0  0  0
   -7.6303   -6.0028  -22.2635 C   0  0  0  0  0
   -6.3059    0.4228  -13.6257 C   0  0  0  0  0
   -7.7457   -0.0474  -15.8676 O   0  0  0  0  0
   -2.8642   -1.4208  -16.1025 O   0  0  0  0  0
   -2.6081   -2.3487  -18.2108 O   0  0  0  0  0
   -2.1853    3.8508  -19.8473 O   0  0  0  0  0
   -1.0004   -0.8069  -19.7741 O   0  0  0  0  0
   -6.4859   -2.9238  -21.3591 O   0  0  0  0  0
   -3.0030   -8.1942  -17.5624 O   0  0  0  0  0
   -3.5225   -7.6039  -14.9031 O   0  0  0  0  0
   -5.3804   -5.7580  -11.9331 O   0  0  0  0  0
   -4.0924   -7.1909  -10.6714 O   0  0  0  0  0
   -3.7147   -6.4555   -8.1461 O   0  0  0  0  0
   -7.5874   -4.7690   -5.8843 O   0  0  0  0  0
   -3.8008   -8.2931  -19.9825 O   0  0  0  0  0
   -7.2914   -5.2421  -21.1117 O   0  0  0  0  0
   -5.8903   -0.8943  -13.9473 O   0  0  0  0  0
   -8.5117    0.1513  -18.3120 O   0  0  0  0  0
  2  3  1  0  0  0
  2 62  1  0  0  0
  3  4  1  0  0  0
  4  5  1  0  0  0
  5 61  1  0  0  0
  6 18  1  0  0  0
  7  6  1  0  0  0
  7  8  1  0  0  0
  8 48  1  0  0  0
  8 17  1  0  0  0
  9 48  1  0  0  0
  9 10  1  0  0  0
 11 12  1  0  0  0
 11 51  1  0  0  0
 13 14  1  0  0  0
 13 50  1  0  0  0
 15 10  1  0  0  0
 16 15  1  0  0  0
 18 19  1  0  0  0
 19 20  1  0  0  0
 20 23  1  0  0  0
 21 52  1  0  0  0
 21  1  1  0  0  0
 22 52  1  0  0  0
 24 25  1  0  0  0
 24 60  1  0  0  0
 26 27  1  0  0  0
 26 59  1  0  0  0
 28 29  1  0  0  0
 28 23  1  0  0  0
 29 30  1  0  0  0
 31 32  1  0  0  0
 31 54  1  0  0  0
 32 27  1  0  0  0
 33 54  1  0  0  0
 34 30  1  0  0  0
 34 35  1  0  0  0
 35 36  1  0  0  0
 35 55  1  0  0  0
 37 55  1  0  0  0
 37 38  1  0  0  0
 39 40  1  0  0  0
 41 42  1  0  0  0
 41 58  1  0  0  0
 43 57  1  0  0  0
 43 38  1  0  0  0
 44 39  1  0  0  0
 45 60  1  0  0  0
 46 61  1  0  0  0
  1  2  2  0  0  0
  4 47  2  0  0  0
  5  6  2  0  0  0
  9 49  2  0  0  0
 10 11  2  0  0  0
 12 13  2  0  0  0
 14 15  2  0  0  0
 19  3  2  0  0  0
 20 21  2  0  0  0
 23 24  2  0  0  0
 25 26  2  0  0  0
 27 28  2  0  0  0
 29 18  2  0  0  0
 30 31  2  0  0  0
 32 53  2  0  0  0
 37 56  2  0  0  0
 38 39  2  0  0  0
 40 41  2  0  0  0
 42 43  2  0  0  0
M  END
> <rmsd>
0.797721803

$$$$
CHEMBL4552367 PubChem-155554411


 87 98  0  0  0  0  0  0  0  0999 V2000
   -5.9319   -2.9945  -23.2746 O   0  0  0  0  0
   -7.2681   -5.4190  -22.2969 O   0  0  0  0  0
   -7.2072   -8.8510  -23.5653 O   0  0  0  0  0
   -3.9130   -7.9180  -19.8429 O   0  0  0  0  0
   -5.1119   -3.4441  -18.4220 O   0  0  0  0  0
   -6.1074   -5.1083  -16.4004 O   0  0  0  0  0
   -9.0257   -5.0900  -14.2151 O   0  0  0  0  0
   -6.3950   -9.4959  -14.3433 O   0  0  0  0  0
   -2.6980   -8.4630  -17.2423 O   0  0  0  0  0
   -9.3354   -0.4964  -17.5291 O   0  0  0  0  0
   -7.7406    0.9473  -15.7336 O   0  0  0  0  0
  -12.2847   -5.7204  -22.2671 O   0  0  0  0  0
  -12.9508   -6.5613  -24.8726 O   0  0  0  0  0
   -6.3671   -0.9447  -18.9058 O   0  0  0  0  0
   -3.7823    1.2501  -22.3561 O   0  0  0  0  0
   -4.0142   -2.0355  -26.2476 O   0  0  0  0  0
   -7.6630   -6.0567  -27.8235 O   0  0  0  0  0
   -5.8134   -8.0385  -27.0995 O   0  0  0  0  0
   -2.7896    3.1445  -20.5102 O   0  0  0  0  0
    0.3209    4.7502  -21.5682 O   0  0  0  0  0
    0.8509    0.7833  -18.3027 O   0  0  0  0  0
   -3.6629   -0.7878  -17.7845 O   0  0  0  0  0
   -2.9771    8.9010  -19.8332 O   0  0  0  0  0
   -2.1701    8.4997  -17.1669 O   0  0  0  0  0
   -5.6332   -1.9557  -22.3844 C   0  0  0  0  0
   -6.1203   -1.9961  -21.0689 C   0  0  0  0  0
   -6.9592   -3.1525  -20.6044 C   0  0  0  0  0
   -6.1436   -4.3980  -20.4004 C   0  0  0  0  0
   -6.3073   -5.4811  -21.2773 C   0  0  0  0  0
   -7.5055   -6.4927  -23.2125 C   0  0  0  0  0
   -7.1241   -7.8466  -22.5969 C   0  0  0  0  0
   -5.6943   -7.7834  -22.0651 C   0  0  0  0  0
   -5.5419   -6.6484  -21.0981 C   0  0  0  0  0
   -4.6613   -6.7575  -20.0095 C   0  0  0  0  0
   -4.5439   -5.6994  -19.0888 C   0  0  0  0  0
   -5.2624   -4.5092  -19.3040 C   0  0  0  0  0
   -3.7286   -5.8592  -17.8325 C   0  0  0  0  0
   -4.4071   -6.7833  -16.8589 C   0  0  0  0  0
   -5.5949   -6.3956  -16.2118 C   0  0  0  0  0
   -7.4050   -4.7262  -15.9545 C   0  0  0  0  0
   -7.7190   -5.3814  -14.6057 C   0  0  0  0  0
   -7.5560   -6.8964  -14.6976 C   0  0  0  0  0
   -6.2627   -7.2982  -15.3620 C   0  0  0  0  0
   -5.7391   -8.5828  -15.1627 C   0  0  0  0  0
   -4.5510   -8.9559  -15.7892 C   0  0  0  0  0
   -3.8825   -8.0658  -16.6318 C   0  0  0  0  0
   -7.4900   -3.2327  -15.8848 C   0  0  0  0  0
   -8.3760   -2.5556  -16.7315 C   0  0  0  0  0
   -8.4625   -1.1615  -16.6814 C   0  0  0  0  0
   -7.6598   -0.4388  -15.7869 C   0  0  0  0  0
   -6.7697   -1.1113  -14.9445 C   0  0  0  0  0
   -6.6853   -2.5064  -14.9918 C   0  0  0  0  0
   -8.9407   -6.4881  -23.6399 C   0  0  0  0  0
   -9.9558   -6.0998  -22.7502 C   0  0  0  0  0
  -11.2926   -6.1193  -23.1565 C   0  0  0  0  0
  -11.6230   -6.5377  -24.4576 C   0  0  0  0  0
  -10.6094   -6.9250  -25.3478 C   0  0  0  0  0
   -9.2729   -6.9028  -24.9375 C   0  0  0  0  0
   -5.8342   -0.9386  -20.1898 C   0  0  0  0  0
   -5.0180    0.1279  -20.6017 C   0  0  0  0  0
   -4.5405    0.1693  -21.9221 C   0  0  0  0  0
   -4.8335   -0.8761  -22.8080 C   0  0  0  0  0
   -4.3463   -0.8087  -24.2317 C   0  0  0  0  0
   -4.2877   -2.1855  -24.8823 C   0  0  0  0  0
   -5.6261   -2.8988  -24.6677 C   0  0  0  0  0
   -5.6561   -4.2523  -25.2952 C   0  0  0  0  0
   -6.6385   -4.5323  -26.2519 C   0  0  0  0  0
   -6.6916   -5.7918  -26.8614 C   0  0  0  0  0
   -5.7680   -6.7845  -26.4989 C   0  0  0  0  0
   -4.7894   -6.5120  -25.5355 C   0  0  0  0  0
   -4.7318   -5.2477  -24.9340 C   0  0  0  0  0
   -4.6808    1.2145  -19.6187 C   0  0  0  0  0
   -3.2380    1.1409  -19.2096 C   0  0  0  0  0
   -2.3240    2.0771  -19.7235 C   0  0  0  0  0
   -1.9436    4.2193  -20.9193 C   0  0  0  0  0
   -0.5300    3.7021  -21.2157 C   0  0  0  0  0
    0.0480    2.9179  -20.0316 C   0  0  0  0  0
   -0.9447    1.9429  -19.4523 C   0  0  0  0  0
   -0.5007    0.9170  -18.6084 C   0  0  0  0  0
   -1.4203    0.0239  -18.0560 C   0  0  0  0  0
   -2.7818    0.1253  -18.3499 C   0  0  0  0  0
   -1.9825    5.3415  -19.9175 C   0  0  0  0  0
   -2.4492    6.5986  -20.3232 C   0  0  0  0  0
   -2.5159    7.6584  -19.4120 C   0  0  0  0  0
   -2.1155    7.4585  -18.0814 C   0  0  0  0  0
   -1.6595    6.2031  -17.6686 C   0  0  0  0  0
   -1.5957    5.1470  -18.5808 C   0  0  0  0  0
 25  1  1  0  0  0
 26 59  1  0  0  0
 27 26  1  0  0  0
 27 28  1  0  0  0
 29  2  1  0  0  0
 30  2  1  0  0  0
 30 31  1  0  0  0
 30 53  1  0  0  0
 31  3  1  0  0  0
 31 32  1  0  0  0
 32 33  1  0  0  0
 33 29  1  0  0  0
 34  4  1  0  0  0
 34 35  1  0  0  0
 36  5  1  0  0  0
 36 28  1  0  0  0
 37 35  1  0  0  0
 37 38  1  0  0  0
 39  6  1  0  0  0
 40  6  1  0  0  0
 40 41  1  0  0  0
 40 47  1  0  0  0
 41  7  1  0  0  0
 41 42  1  0  0  0
 42 43  1  0  0  0
 43 39  1  0  0  0
 44  8  1  0  0  0
 44 45  1  0  0  0
 46  9  1  0  0  0
 46 38  1  0  0  0
 48 49  1  0  0  0
 49 10  1  0  0  0
 50 11  1  0  0  0
 50 51  1  0  0  0
 52 47  1  0  0  0
 54 55  1  0  0  0
 55 12  1  0  0  0
 56 13  1  0  0  0
 56 57  1  0  0  0
 58 53  1  0  0  0
 59 14  1  0  0  0
 60 61  1  0  0  0
 61 15  1  0  0  0
 62 25  1  0  0  0
 63 62  1  0  0  0
 63 64  1  0  0  0
 64 16  1  0  0  0
 64 65  1  0  0  0
 65 66  1  0  0  0
 65  1  1  0  0  0
 67 68  1  0  0  0
 68 17  1  0  0  0
 69 18  1  0  0  0
 69 70  1  0  0  0
 71 66  1  0  0  0
 72 60  1  0  0  0
 72 73  1  0  0  0
 74 19  1  0  0  0
 75 19  1  0  0  0
 75 76  1  0  0  0
 75 82  1  0  0  0
 76 20  1  0  0  0
 76 77  1  0  0  0
 77 78  1  0  0  0
 78 74  1  0  0  0
 79 21  1  0  0  0
 79 80  1  0  0  0
 81 22  1  0  0  0
 81 73  1  0  0  0
 83 84  1  0  0  0
 84 23  1  0  0  0
 85 24  1  0  0  0
 85 86  1  0  0  0
 87 82  1  0  0  0
 25 26  2  0  0  0
 28 29  2  0  0  0
 33 34  2  0  0  0
 35 36  2  0  0  0
 38 39  2  0  0  0
 43 44  2  0  0  0
 45 46  2  0  0  0
 47 48  2  0  0  0
 49 50  2  0  0  0
 51 52  2  0  0  0
 53 54  2  0  0  0
 55 56  2  0  0  0
 57 58  2  0  0  0
 59 60  2  0  0  0
 61 62  2  0  0  0
 66 67  2  0  0  0
 68 69  2  0  0  0
 70 71  2  0  0  0
 73 74  2  0  0  0
 78 79  2  0  0  0
 80 81  2  0  0  0
 82 83  2  0  0  0
 84 85  2  0  0  0
 86 87  2  0  0  0
M  END
> <rmsd>
0.830661237

$$$$
CHEMBL3706404 PubChem-122197258


 41 43  0  0  0  0  0  0  0  0999 V2000
    0.8572    3.2707  -19.2278 N   0  0  0  0  0
   -0.1394    3.7570  -17.0723 N   0  0  0  0  0
   -1.9199    2.4488  -16.1881 N   0  0  0  0  0
   -1.1346    1.0369  -19.2993 N   0  0  0  0  0
   -2.6036    0.6311  -17.6255 N   0  0  0  0  0
   -2.4154   -7.7747  -17.3268 N   0  0  0  0  0
   -8.9696   -1.9818  -21.2678 N   0  0  0  0  0
   -0.0859    2.9887  -18.2002 C   0  0  0  0  0
   -1.0459    3.4947  -16.0754 C   0  0  0  0  0
   -1.8553    1.6902  -17.3091 C   0  0  0  0  0
   -0.9765    1.9303  -18.3045 C   0  0  0  0  0
   -2.1538    0.2505  -18.8506 C   0  0  0  0  0
   -3.7107    0.0685  -16.8633 C   0  0  0  0  0
   -4.9740   -1.7783  -16.7304 C   0  0  0  0  0
   -5.1663   -3.0979  -17.4804 C   0  0  0  0  0
   -4.2786   -4.2027  -16.9101 C   0  0  0  0  0
   -4.6573   -4.5524  -15.4780 C   0  0  0  0  0
   -4.9295   -7.1407  -15.7493 C   0  0  0  0  0
   -4.3166   -8.5201  -15.9555 C   0  0  0  0  0
   -3.5786   -8.6491  -17.2900 C   0  0  0  0  0
   -4.4905   -8.4036  -18.4571 C   0  0  0  0  0
   -5.9147   -0.7096  -17.2570 C   0  0  0  0  0
   -5.0278    0.4929  -17.4631 C   0  0  0  0  0
   -3.6480   -1.3330  -16.8770 O   0  0  0  0  0
   -4.2832   -7.4475  -19.2498 O   0  0  0  0  0
   -5.5819   -9.2377  -18.6624 O   0  0  0  0  0
   -6.5092   -3.4966  -17.4534 O   0  0  0  0  0
   -6.3380   -5.0114  -19.5813 O   0  0  0  0  0
   -6.4038   -2.4257  -20.0089 O   0  0  0  0  0
   -8.6530   -3.8473  -19.1410 O   0  0  0  0  0
  -10.5683   -4.0909  -20.9065 O   0  0  0  0  0
   -8.1815   -4.6305  -21.7807 O   0  0  0  0  0
   -9.7847    0.4700  -20.6232 O   0  0  0  0  0
  -11.5225   -1.4270  -20.1876 O   0  0  0  0  0
   -9.2859   -1.0952  -18.5996 O   0  0  0  0  0
   -6.9143   -0.4666  -16.3115 O   0  0  0  0  0
   -5.5080    1.6287  -16.8071 O   0  0  0  0  0
   -3.7395   -6.0247  -14.9483 S   0  0  0  0  0
   -6.9571   -3.7278  -19.0751 P   0  0  0  0  0
   -9.1265   -3.6594  -20.7660 P   0  0  0  0  0
   -9.8951   -0.9669  -20.1722 P   0  0  0  0  0
  1  8  1  0  0  0
  5 10  1  0  0  0
  9  2  1  0  0  0
 10  3  1  0  0  0
 11  4  1  0  0  0
 11  8  1  0  0  0
 12  5  1  0  0  0
 13  5  1  0  0  0
 13 24  1  0  0  0
 14 24  1  0  0  0
 14 15  1  0  0  0
 14 22  1  0  0  0
 15 16  1  0  0  0
 15 27  1  0  0  0
 16 17  1  0  0  0
 17 38  1  0  0  0
 18 38  1  0  0  0
 18 19  1  0  0  0
 19 20  1  0  0  0
 20  6  1  0  0  0
 20 21  1  0  0  0
 21 26  1  0  0  0
 22 36  1  0  0  0
 22 23  1  0  0  0
 23 37  1  0  0  0
 23 13  1  0  0  0
 39 27  1  0  0  0
 39 29  1  0  0  0
 39 30  1  0  0  0
 40 30  1  0  0  0
 40 32  1  0  0  0
 40  7  1  0  0  0
 41  7  1  0  0  0
 41 34  1  0  0  0
 41 35  1  0  0  0
  8  2  2  0  0  0
  9  3  2  0  0  0
 10 11  2  0  0  0
 12  4  2  0  0  0
 21 25  2  0  0  0
 39 28  2  0  0  0
 40 31  2  0  0  0
 41 33  2  0  0  0
M  END
> <rmsd>
0.717589617

$$$$
CHEMBL2348049 PubChem-71584458


 35 37  0  0  0  0  0  0  0  0999 V2000
   -6.7758    0.1822  -16.8831 N   0  0  0  0  0
   -8.8776   -0.2294  -17.9136 N   0  0  0  0  0
   -6.0490    2.4387  -16.3082 N   0  0  0  0  0
   -8.7041    3.2369  -17.4235 N   0  0  0  0  0
  -10.1895    1.7637  -18.2909 N   0  0  0  0  0
   -7.3850   -2.0879  -17.4447 N   0  0  0  0  0
   -3.4048   -7.7262  -18.7478 N   0  0  0  0  0
   -7.6902   -0.6930  -17.4125 C   0  0  0  0  0
   -9.1094    1.1043  -17.8639 C   0  0  0  0  0
   -8.2238    1.9816  -17.3465 C   0  0  0  0  0
   -7.0147    1.5282  -16.8403 C   0  0  0  0  0
   -4.7346    2.0150  -15.8410 C   0  0  0  0  0
   -3.8656    1.6377  -16.9939 C   0  0  0  0  0
   -3.3544    2.6254  -17.8443 C   0  0  0  0  0
   -2.5543    2.2657  -18.9333 C   0  0  0  0  0
   -2.2656    0.9188  -19.1748 C   0  0  0  0  0
   -2.7767   -0.0691  -18.3270 C   0  0  0  0  0
   -3.5764    0.2903  -17.2379 C   0  0  0  0  0
   -9.9238    3.0678  -18.0098 C   0  0  0  0  0
  -11.3826    1.1986  -18.9107 C   0  0  0  0  0
  -11.5881    1.7795  -20.2976 C   0  0  0  0  0
  -12.6045    1.4610  -18.0508 C   0  0  0  0  0
   -8.2514   -3.0769  -18.0763 C   0  0  0  0  0
   -8.2270   -2.9157  -19.5924 C   0  0  0  0  0
   -6.4784   -3.9301  -21.0004 C   0  0  0  0  0
   -5.0572   -3.9554  -21.4477 C   0  0  0  0  0
   -4.1509   -4.4559  -20.3346 C   0  0  0  0  0
   -4.2987   -5.9559  -20.1633 C   0  0  0  0  0
   -7.8066   -4.4791  -17.6931 C   0  0  0  0  0
   -8.1475   -4.7582  -16.2414 C   0  0  0  0  0
   -6.8920   -2.9667  -20.0809 O   0  0  0  0  0
   -7.2861   -4.7910  -21.4421 O   0  0  0  0  0
   -3.4531   -6.3978  -19.1132 O   0  0  0  0  0
   -2.6400   -8.0859  -17.8308 O   0  0  0  0  0
   -4.1795   -8.6637  -19.3927 O   0  0  0  0  0
  5  9  1  0  0  0
  7 33  1  0  0  0
  7 35  1  0  0  0
  8  2  1  0  0  0
  8  6  1  0  0  0
  9 10  1  0  0  0
 10  4  1  0  0  0
 11  3  1  0  0  0
 11  1  1  0  0  0
 12  3  1  0  0  0
 12 13  1  0  0  0
 14 15  1  0  0  0
 16 17  1  0  0  0
 18 13  1  0  0  0
 19  5  1  0  0  0
 20  5  1  0  0  0
 20 21  1  0  0  0
 20 22  1  0  0  0
 23  6  1  0  0  0
 23 24  1  0  0  0
 23 29  1  0  0  0
 24 31  1  0  0  0
 25 31  1  0  0  0
 26 25  1  0  0  0
 26 27  1  0  0  0
 27 28  1  0  0  0
 28 33  1  0  0  0
 29 30  1  0  0  0
  7 34  2  0  0  0
  8  1  2  0  0  0
  9  2  2  0  0  0
 10 11  2  0  0  0
 13 14  2  0  0  0
 15 16  2  0  0  0
 17 18  2  0  0  0
 19  4  2  0  0  0
 25 32  2  0  0  0
M  CHG  2   7   1  35  -1
M  END
> <rmsd>
0.706294358

$$$$
CHEMBL2368119


 67 74  0  0  0  0  0  0  0  0999 V2000
   -6.1509  -13.9036  -18.4616 C   0  0  0  0  0
   -7.3365  -11.8475  -19.3174 C   0  0  0  0  0
   -6.0557  -10.3788  -20.3970 C   0  0  0  0  0
   -6.3812  -11.4146  -21.4598 C   0  0  0  0  0
   -7.4365  -12.2381  -20.7827 C   0  0  0  0  0
   -4.6408   -9.8274  -20.5153 C   0  0  0  0  0
   -3.7314   -6.8520  -17.6235 C   0  0  0  0  0
   -3.6484   -6.3174  -16.2299 C   0  0  0  0  0
   -3.9985   -4.8490  -16.3913 C   0  0  0  0  0
   -5.7264   -3.2495  -15.6836 C   0  0  0  0  0
   -7.9884   -3.8838  -15.4010 C   0  0  0  0  0
   -7.6794   -5.1915  -15.7590 C   0  0  0  0  0
   -6.3577   -5.4942  -16.0732 C   0  0  0  0  0
   -3.6036   -5.6165  -18.4915 C   0  0  0  0  0
   -4.6164   -5.6279  -19.6291 C   0  0  0  0  0
   -5.9503   -2.4806  -19.4257 C   0  0  0  0  0
   -4.5670   -1.9579  -19.2263 C   0  0  0  0  0
   -4.6374   -0.5690  -19.8050 C   0  0  0  0  0
   -2.6300    0.9046  -19.5426 C   0  0  0  0  0
   -2.0716    1.6430  -18.5593 C   0  0  0  0  0
   -3.8314    0.7357  -17.7907 C   0  0  0  0  0
   -0.8912    2.3311  -18.7971 C   0  0  0  0  0
   -0.9253    1.4765  -21.0244 C   0  0  0  0  0
   -6.7916   -1.2240  -19.5154 C   0  0  0  0  0
   -7.5715   -1.0544  -18.2213 C   0  0  0  0  0
   -8.0349  -13.4969  -17.5517 C   0  0  0  0  0
   -6.4073  -14.8625  -17.5470 C   0  0  0  0  0
   -5.5065  -15.9020  -17.3646 C   0  0  0  0  0
   -4.1382  -14.9234  -19.0588 C   0  0  0  0  0
   -7.1636  -13.0288  -18.4818 N   0  0  0  0  0
   -5.3889   -4.5324  -16.0289 N   0  0  0  0  0
   -7.0122   -2.9415  -15.3691 N   0  0  0  0  0
   -9.3261   -3.5366  -15.0638 N   0  0  0  0  0
   -3.7405    0.3245  -19.0829 N   0  0  0  0  0
   -2.8053    1.5614  -17.4332 N   0  0  0  0  0
   -0.3371    2.2317  -20.0400 N   0  0  0  0  0
   -2.0887    0.8005  -20.7786 N   0  0  0  0  0
   -0.2647    3.1080  -17.7832 N   0  0  0  0  0
   -7.5927  -14.6381  -16.9480 N   0  0  0  0  0
   -4.3782  -15.9114  -18.1367 N   0  0  0  0  0
   -5.0336  -13.9030  -19.2289 N   0  0  0  0  0
   -2.9581  -14.9680  -19.8521 N   0  0  0  0  0
   -6.2546  -10.9686  -19.1423 O   0  0  0  0  0
   -5.2718  -12.2291  -21.7202 O   0  0  0  0  0
   -3.7232  -12.8456  -23.7330 O   0  0  0  0  0
   -4.9229  -10.5275  -23.8913 O   0  0  0  0  0
   -6.2929  -12.9099  -24.2064 O   0  0  0  0  0
   -4.4951   -8.7095  -19.6893 O   0  0  0  0  0
   -3.9429   -9.9511  -17.4361 O   0  0  0  0  0
   -2.6527   -7.7074  -17.8653 O   0  0  0  0  0
   -4.8550   -2.3377  -15.6599 O   0  0  0  0  0
   -3.7452   -4.4491  -17.7148 O   0  0  0  0  0
   -5.9218   -5.5276  -19.1287 O   0  0  0  0  0
   -6.9099   -5.4547  -21.5592 O   0  0  0  0  0
   -6.0101   -3.1733  -20.6382 O   0  0  0  0  0
   -5.9610   -0.1005  -19.7222 O   0  0  0  0  0
   -8.3408    0.1094  -18.2778 O   0  0  0  0  0
   -9.4219    1.8004  -16.6020 O   0  0  0  0  0
   -9.8830   -0.7282  -16.1374 O   0  0  0  0  0
   -7.4107    0.4175  -15.6767 O   0  0  0  0  0
   -8.3410   -4.3273  -19.6893 O   0  0  0  0  0
   -2.0645  -10.0064  -19.2559 O   0  0  0  0  0
   -5.7416  -16.9106  -16.4401 O   0  0  0  0  0
   -5.0192  -12.1441  -23.3955 P   0  0  0  0  0
   -3.3156   -9.1195  -18.5352 P   0  0  0  0  0
   -6.7896   -4.6428  -20.2887 P   0  0  0  0  0
   -8.7790    0.4356  -16.6726 P   0  0  0  0  0
  1 30  1  0  0  0
  1 41  1  0  0  0
  2 30  1  0  0  0
  2 43  1  0  0  0
  3 43  1  0  0  0
  3  4  1  0  0  0
  3  6  1  0  0  0
  4  5  1  0  0  0
  4 44  1  0  0  0
  5  2  1  0  0  0
  6 48  1  0  0  0
  7 50  1  0  0  0
  7  8  1  0  0  0
  8  9  1  0  0  0
  9 31  1  0  0  0
  9 52  1  0  0  0
 10 32  1  0  0  0
 11 12  1  0  0  0
 11 33  1  0  0  0
 13 31  1  0  0  0
 14 52  1  0  0  0
 14 15  1  0  0  0
 14  7  1  0  0  0
 15 53  1  0  0  0
 16 55  1  0  0  0
 16 17  1  0  0  0
 17 18  1  0  0  0
 18 34  1  0  0  0
 18 56  1  0  0  0
 19 37  1  0  0  0
 20 35  1  0  0  0
 20 22  1  0  0  0
 21 34  1  0  0  0
 22 38  1  0  0  0
 23 36  1  0  0  0
 24 56  1  0  0  0
 24 25  1  0  0  0
 24 16  1  0  0  0
 25 57  1  0  0  0
 27 39  1  0  0  0
 27 28  1  0  0  0
 28 63  1  0  0  0
 29 40  1  0  0  0
 29 42  1  0  0  0
 30 26  1  0  0  0
 31 10  1  0  0  0
 34 19  1  0  0  0
 64 44  1  0  0  0
 64 46  1  0  0  0
 64 47  1  0  0  0
 65 48  1  0  0  0
 65 50  1  0  0  0
 65 62  1  0  0  0
 66 53  1  0  0  0
 66 55  1  0  0  0
 66 61  1  0  0  0
 67 57  1  0  0  0
 67 59  1  0  0  0
 67 60  1  0  0  0
 10 51  2  0  0  0
 11 32  2  0  0  0
 12 13  2  0  0  0
 19 20  2  0  0  0
 21 35  2  0  0  0
 22 36  2  0  0  0
 23 37  2  0  0  0
 26 39  2  0  0  0
 27  1  2  0  0  0
 28 40  2  0  0  0
 29 41  2  0  0  0
 64 45  2  0  0  0
 65 49  2  0  0  0
 66 54  2  0  0  0
 67 58  2  0  0  0
M  END
> <rmsd>
0.756751597

$$$$
CHEMBL1084191


110113  0  0  0  0  0  0  0  0999 V2000
  -13.1115    4.7986  -13.0827 C   0  0  0  0  0
  -13.1541    6.3130  -13.0333 C   0  0  0  0  0
  -13.8207    6.7394  -11.7432 C   0  0  0  0  0
  -11.7481    6.9037  -13.0957 C   0  0  0  0  0
  -11.1585    6.9523  -14.5154 C   0  0  0  0  0
  -12.5567    8.8949  -15.3722 C   0  0  0  0  0
  -13.6988    9.3403  -16.2190 C   0  0  0  0  0
  -15.5989    8.0340  -15.1595 C   0  0  0  0  0
  -16.9060    8.0254  -14.4309 C   0  0  0  0  0
  -18.0958    7.8117  -15.3726 C   0  0  0  0  0
  -18.4131    8.9999  -16.2300 C   0  0  0  0  0
  -17.5665    9.3786  -17.2787 C   0  0  0  0  0
  -17.8917   10.4775  -18.0803 C   0  0  0  0  0
  -19.0727   11.1916  -17.8451 C   0  0  0  0  0
  -19.9274   10.8050  -16.8084 C   0  0  0  0  0
  -19.5990    9.7072  -16.0081 C   0  0  0  0  0
  -17.1180    9.2220  -12.2083 C   0  0  0  0  0
  -17.4074   10.5073  -11.4767 C   0  0  0  0  0
  -17.1552   10.3857   -9.9813 C   0  0  0  0  0
  -18.5238   10.3131   -9.3193 C   0  0  0  0  0
  -19.5234   10.8150  -10.3431 C   0  0  0  0  0
  -19.3894   11.3353  -12.8291 C   0  0  0  0  0
  -20.8742   11.4038  -13.0383 C   0  0  0  0  0
  -21.8576   13.7288  -13.1240 C   0  0  0  0  0
  -22.4224   14.9257  -12.4121 C   0  0  0  0  0
  -21.8488   15.1168  -11.0088 C   0  0  0  0  0
  -20.4178   15.6428  -11.0571 C   0  0  0  0  0
  -20.3721   17.0830  -11.5413 C   0  0  0  0  0
  -22.1623   18.7647  -10.9490 C   0  0  0  0  0
  -24.6420   13.8590  -11.7066 C   0  0  0  0  0
  -26.1291   13.9122  -11.7517 C   0  0  0  0  0
  -21.6223   10.1525  -12.5623 C   0  0  0  0  0
  -21.0439    8.8844  -13.1711 C   0  0  0  0  0
  -23.0930   10.2421  -12.9386 C   0  0  0  0  0
  -10.7126    5.5949  -14.9851 C   0  0  0  0  0
  -10.9646    3.8056  -16.8047 C   0  0  0  0  0
  -11.1473    3.7512  -18.3120 C   0  0  0  0  0
   -9.7483    3.0318  -16.3838 C   0  0  0  0  0
  -11.1271    1.6907  -14.7417 C   0  0  0  0  0
  -10.7859    0.7712  -13.5880 C   0  0  0  0  0
   -9.2804    0.8832  -13.3852 C   0  0  0  0  0
   -8.7197    1.4800  -14.6643 C   0  0  0  0  0
   -8.0426    0.4171  -15.4674 C   0  0  0  0  0
   -8.1994   -1.8025  -16.6882 C   0  0  0  0  0
   -9.1656   -2.9909  -16.7449 C   0  0  0  0  0
  -10.4576   -2.7051  -17.5116 C   0  0  0  0  0
  -11.4491   -1.9701  -16.6292 C   0  0  0  0  0
  -11.0703   -4.0141  -17.9571 C   0  0  0  0  0
   -7.6992   -1.4112  -18.0460 C   0  0  0  0  0
   -5.7937   -1.4151  -19.7133 C   0  0  0  0  0
   -5.4702    0.0759  -19.8806 C   0  0  0  0  0
   -4.3013    0.5353  -19.0626 C   0  0  0  0  0
   -3.1195    0.9169  -19.7068 C   0  0  0  0  0
   -2.0185    1.3475  -18.9601 C   0  0  0  0  0
   -2.0993    1.4026  -17.5657 C   0  0  0  0  0
   -3.2817    1.0304  -16.9181 C   0  0  0  0  0
   -4.3813    0.5978  -17.6659 C   0  0  0  0  0
   -4.6083   -2.2887  -19.9967 C   0  0  0  0  0
   -3.2704   -3.5988  -21.7180 C   0  0  0  0  0
   -3.3630   -3.9143  -23.2034 C   0  0  0  0  0
   -4.2627   -5.1181  -23.4556 C   0  0  0  0  0
   -5.7321   -4.7405  -23.3651 C   0  0  0  0  0
   -6.2755   -5.0950  -21.9939 C   0  0  0  0  0
   -1.8940   -3.1063  -21.3738 C   0  0  0  0  0
    0.3166   -4.1109  -20.5425 C   0  0  0  0  0
   -0.1257   -4.8735  -19.3197 C   0  0  0  0  0
   -2.0271   -5.8553  -17.9406 C   0  0  0  0  0
   -3.4992   -5.5470  -17.6667 C   0  0  0  0  0
   -4.3792   -5.7394  -18.8974 C   0  0  0  0  0
   -5.2636   -6.9258  -18.7323 C   0  0  0  0  0
   -1.8161   -7.3117  -18.2363 C   0  0  0  0  0
    0.9557   -2.7501  -20.2150 C   0  0  0  0  0
    1.4477   -2.0750  -21.4850 C   0  0  0  0  0
    2.1411   -2.8986  -19.2742 C   0  0  0  0  0
  -12.1108    7.5380  -15.4543 N   0  0  0  0  0
  -14.9451    9.2683  -15.4669 N   0  0  0  0  0
  -17.0800    9.2360  -13.6365 N   0  0  0  0  0
  -18.8134   10.8460  -11.6057 N   0  0  0  0  0
  -21.3984   12.5931  -12.3847 N   0  0  0  0  0
  -21.0388   17.9562  -10.5881 N   0  0  0  0  0
  -22.6051   18.7706  -12.1619 N   0  0  0  0  0
  -22.7834   19.5872   -9.9695 N   0  0  0  0  0
  -23.8806   14.8694  -12.3752 N   0  0  0  0  0
  -26.6340   14.5135  -10.5302 N   0  0  0  0  0
  -10.9205    5.1950  -16.3475 N   0  0  0  0  0
   -9.8657    2.0103  -15.3830 N   0  0  0  0  0
   -8.8023   -0.6727  -15.9943 N   0  0  0  0  0
   -6.3457   -1.7038  -18.3949 N   0  0  0  0  0
   -4.3097   -2.6391  -21.3532 N   0  0  0  0  0
   -7.6750   -4.7129  -21.9155 N   0  0  0  0  0
   -0.7840   -4.0034  -21.5030 N   0  0  0  0  0
   -1.5175   -5.0098  -19.0142 N   0  0  0  0  0
  -11.9943    9.7132  -14.6007 O   0  0  0  0  0
  -15.1060    6.9387  -15.5383 O   0  0  0  0  0
  -16.9450    8.1400  -11.5807 O   0  0  0  0  0
  -18.6364   11.7924  -13.7325 O   0  0  0  0  0
  -21.8495   13.7124  -14.3825 O   0  0  0  0  0
  -24.0728   12.9352  -11.0710 O   0  0  0  0  0
  -10.0940    4.8366  -14.1877 O   0  0  0  0  0
  -12.3922    4.2819  -18.6599 O   0  0  0  0  0
   -8.6198    3.3162  -16.8674 O   0  0  0  0  0
   -6.7987    0.4819  -15.6540 O   0  0  0  0  0
   -8.4682   -0.8524  -18.8744 O   0  0  0  0  0
   -3.8472   -2.6475  -19.0605 O   0  0  0  0  0
   -1.7176   -1.9279  -20.9582 O   0  0  0  0  0
    0.7389   -5.4200  -18.5806 O   0  0  0  0  0
   -6.1422   -6.9389  -17.8303 O   0  0  0  0  0
   -5.1346   -8.0085  -19.5898 O   0  0  0  0  0
   -1.9243   -7.7506  -19.4131 O   0  0  0  0  0
   -1.5499   -8.1892  -17.1957 O   0  0  0  0  0
  1  2  1  0  0  0
  2  3  1  0  0  0
  2  4  1  0  0  0
  5  4  1  0  0  0
  5 75  1  0  0  0
  5 35  1  0  0  0
  7  6  1  0  0  0
  7 76  1  0  0  0
  9  8  1  0  0  0
  9 10  1  0  0  0
  9 77  1  0  0  0
 10 11  1  0  0  0
 12 13  1  0  0  0
 14 15  1  0  0  0
 16 11  1  0  0  0
 18 17  1  0  0  0
 18 19  1  0  0  0
 18 78  1  0  0  0
 19 20  1  0  0  0
 20 21  1  0  0  0
 21 78  1  0  0  0
 23 22  1  0  0  0
 23 79  1  0  0  0
 23 32  1  0  0  0
 25 24  1  0  0  0
 25 26  1  0  0  0
 25 83  1  0  0  0
 26 27  1  0  0  0
 27 28  1  0  0  0
 28 80  1  0  0  0
 29 82  1  0  0  0
 31 30  1  0  0  0
 31 84  1  0  0  0
 32 33  1  0  0  0
 32 34  1  0  0  0
 35 85  1  0  0  0
 36 85  1  0  0  0
 36 37  1  0  0  0
 36 38  1  0  0  0
 37100  1  0  0  0
 38 86  1  0  0  0
 39 86  1  0  0  0
 39 40  1  0  0  0
 40 41  1  0  0  0
 41 42  1  0  0  0
 42 43  1  0  0  0
 42 86  1  0  0  0
 43 87  1  0  0  0
 44 87  1  0  0  0
 44 45  1  0  0  0
 44 49  1  0  0  0
 45 46  1  0  0  0
 46 47  1  0  0  0
 46 48  1  0  0  0
 49 88  1  0  0  0
 50 88  1  0  0  0
 50 51  1  0  0  0
 50 58  1  0  0  0
 51 52  1  0  0  0
 53 54  1  0  0  0
 55 56  1  0  0  0
 57 52  1  0  0  0
 58 89  1  0  0  0
 59 89  1  0  0  0
 59 60  1  0  0  0
 59 64  1  0  0  0
 60 61  1  0  0  0
 61 62  1  0  0  0
 62 63  1  0  0  0
 63 90  1  0  0  0
 64 91  1  0  0  0
 65 91  1  0  0  0
 65 66  1  0  0  0
 65 72  1  0  0  0
 66 92  1  0  0  0
 67 92  1  0  0  0
 67 68  1  0  0  0
 67 71  1  0  0  0
 68 69  1  0  0  0
 69 70  1  0  0  0
 70108  1  0  0  0
 71110  1  0  0  0
 72 73  1  0  0  0
 72 74  1  0  0  0
 75  6  1  0  0  0
 76  8  1  0  0  0
 77 17  1  0  0  0
 78 22  1  0  0  0
 79 24  1  0  0  0
 80 29  1  0  0  0
 83 30  1  0  0  0
  6 93  2  0  0  0
  8 94  2  0  0  0
 11 12  2  0  0  0
 13 14  2  0  0  0
 15 16  2  0  0  0
 17 95  2  0  0  0
 22 96  2  0  0  0
 24 97  2  0  0  0
 29 81  2  0  0  0
 30 98  2  0  0  0
 35 99  2  0  0  0
 38101  2  0  0  0
 43102  2  0  0  0
 49103  2  0  0  0
 52 53  2  0  0  0
 54 55  2  0  0  0
 56 57  2  0  0  0
 58104  2  0  0  0
 64105  2  0  0  0
 66106  2  0  0  0
 70107  2  0  0  0
 71109  2  0  0  0
M  END
> <rmsd>
0.714680791

$$$$
CHEMBL2029000


 45 48  0  0  0  0  0  0  0  0999 V2000
   -7.0431   -4.4901  -24.1615 B   0  0  0  0  0
   -7.3190   -4.4251  -22.2955 P   0  0  0  0  0
   -9.0537   -3.4928  -20.3746 P   0  0  0  0  0
   -4.6183   -4.4284  -21.5820 P   0  0  0  0  0
   -7.3844   -5.8373  -21.7572 O   0  0  0  0  0
   -8.8148   -3.6493  -22.0538 O   0  0  0  0  0
  -10.4297   -2.9148  -20.1324 O   0  0  0  0  0
   -8.9745   -5.0071  -19.6200 O   0  0  0  0  0
   -7.8926   -2.4683  -19.6836 O   0  0  0  0  0
   -5.8880   -0.6358  -19.3139 O   0  0  0  0  0
   -0.6300    2.2229  -17.9914 O   0  0  0  0  0
   -4.7054    1.9174  -19.9352 O   0  0  0  0  0
   -6.9950    1.0687  -16.4327 O   0  0  0  0  0
   -8.5965   -0.4495  -17.8387 O   0  0  0  0  0
   -6.0721   -3.5281  -21.5514 O   0  0  0  0  0
   -3.5369   -3.5559  -22.1786 O   0  0  0  0  0
   -4.7161   -5.8488  -22.5026 O   0  0  0  0  0
   -4.1656   -4.8239  -19.9970 O   0  0  0  0  0
   -4.2449   -7.6379  -19.8309 O   0  0  0  0  0
   -0.2666  -12.2414  -19.1014 O   0  0  0  0  0
   -2.5591   -8.6209  -17.6413 O   0  0  0  0  0
   -6.5499   -9.8923  -18.4574 O   0  0  0  0  0
   -7.1691   -7.4103  -18.9391 O   0  0  0  0  0
   -7.9434   -1.2880  -20.4305 C   0  0  0  0  0
   -7.1509   -0.1823  -19.7430 C   0  0  0  0  0
   -5.6285    0.0081  -18.0865 C   0  0  0  0  0
   -3.4342    0.2437  -17.1125 C   0  0  0  0  0
   -2.1512    0.7839  -17.0513 C   0  0  0  0  0
   -1.7816    1.7176  -18.0143 C   0  0  0  0  0
   -3.9156    1.5507  -19.0257 C   0  0  0  0  0
   -6.7177    1.0194  -17.8001 C   0  0  0  0  0
   -7.8789    0.4901  -18.5910 C   0  0  0  0  0
   -5.2685   -5.4821  -19.4496 C   0  0  0  0  0
   -4.8413   -6.8164  -18.8551 C   0  0  0  0  0
   -4.6233   -8.9621  -19.5309 C   0  0  0  0  0
   -3.3432  -10.8854  -20.2203 C   0  0  0  0  0
   -2.2484  -11.7444  -20.1464 C   0  0  0  0  0
   -1.2691  -11.4862  -19.1933 C   0  0  0  0  0
   -2.4728   -9.5925  -18.4406 C   0  0  0  0  0
   -5.4981   -8.9836  -18.2932 C   0  0  0  0  0
   -5.9887   -7.5677  -18.1995 C   0  0  0  0  0
   -4.3023    0.6264  -18.0890 N   0  0  0  0  0
   -2.6650    2.0818  -18.9795 N   0  0  0  0  0
   -3.4482   -9.8218  -19.3794 N   0  0  0  0  0
   -1.3993  -10.4232  -18.3592 N   0  0  0  0  0
  2  1  1  0  0  0
  2  6  1  0  0  0
  2 15  1  0  0  0
  3  6  1  0  0  0
  3  8  1  0  0  0
  3  9  1  0  0  0
  4 15  1  0  0  0
  4 17  1  0  0  0
  4 18  1  0  0  0
 24  9  1  0  0  0
 25 24  1  0  0  0
 25 10  1  0  0  0
 26 10  1  0  0  0
 26 42  1  0  0  0
 26 31  1  0  0  0
 28 29  1  0  0  0
 29 43  1  0  0  0
 30 42  1  0  0  0
 31 13  1  0  0  0
 31 32  1  0  0  0
 32 14  1  0  0  0
 32 25  1  0  0  0
 33 18  1  0  0  0
 34 33  1  0  0  0
 34 19  1  0  0  0
 35 19  1  0  0  0
 35 44  1  0  0  0
 35 40  1  0  0  0
 37 38  1  0  0  0
 38 45  1  0  0  0
 39 44  1  0  0  0
 40 22  1  0  0  0
 40 41  1  0  0  0
 41 23  1  0  0  0
 41 34  1  0  0  0
 42 27  1  0  0  0
 43 30  1  0  0  0
 44 36  1  0  0  0
 45 39  1  0  0  0
  2  5  2  0  0  0
  3  7  2  0  0  0
  4 16  2  0  0  0
 27 28  2  0  0  0
 29 11  2  0  0  0
 30 12  2  0  0  0
 36 37  2  0  0  0
 38 20  2  0  0  0
 39 21  2  0  0  0
M  END
> <rmsd>
0.740261674

$$$$
CHEMBL4453621 PubChem-155522676


 94101  0  0  0  0  0  0  0  0999 V2000
   16.5235   19.5943  -22.3339 O   0  0  0  0  0
   16.3165   20.5667  -24.5754 O   0  0  0  0  0
   12.6823   18.1239  -19.7113 O   0  0  0  0  0
   10.8194   17.0731  -20.8972 O   0  0  0  0  0
   10.4668   19.4421  -19.8399 O   0  0  0  0  0
    8.6909   17.4684  -23.9345 O   0  0  0  0  0
    7.6612   13.2595  -23.6724 O   0  0  0  0  0
    2.1073    8.1755  -24.2952 O   0  0  0  0  0
   -0.5916    1.7638  -21.2802 O   0  0  0  0  0
   -4.1123   -0.3892  -19.8604 O   0  0  0  0  0
   -4.4279   -8.5424  -19.5858 O   0  0  0  0  0
   -2.6272   -8.2401  -17.9584 O   0  0  0  0  0
   -2.1931   -7.5168  -20.4242 O   0  0  0  0  0
   -9.4413   -4.6366  -20.2200 O   0  0  0  0  0
   -7.5171   -5.5860  -21.3981 O   0  0  0  0  0
   -8.2062   -6.6288  -19.1183 O   0  0  0  0  0
   -6.9221    0.7381  -19.1579 O   0  0  0  0  0
   -8.9221   -0.3148  -18.2179 O   0  0  0  0  0
   -7.0082    0.3070  -16.5923 O   0  0  0  0  0
   -1.7783   -1.8817  -17.4265 O   0  0  0  0  0
   -1.5270   -3.8567  -16.0122 O   0  0  0  0  0
   -3.4384   -2.2310  -15.4335 O   0  0  0  0  0
   10.9868   23.0077  -27.1219 O   0  0  0  0  0
   12.9776   23.2423  -25.7186 O   0  0  0  0  0
   12.8269   21.1994  -27.3275 O   0  0  0  0  0
    7.0186   22.2180  -24.5137 O   0  0  0  0  0
    7.0048   21.0895  -22.3396 O   0  0  0  0  0
    6.6278   19.6509  -24.4789 O   0  0  0  0  0
   16.1692   17.9790  -24.3443 O   0  0  0  0  0
   15.8268   19.4760  -23.6610 S   0  0  0  0  0
   11.5120   18.3811  -20.6226 S   0  0  0  0  0
   -3.2990   -7.6434  -19.1647 S   0  0  0  0  0
   -8.0766   -5.2379  -20.0475 S   0  0  0  0  0
   -7.4230   -0.2342  -18.1273 S   0  0  0  0  0
   -2.5256   -2.9344  -16.6572 S   0  0  0  0  0
   12.0082   22.2590  -26.3146 S   0  0  0  0  0
    7.4167   20.9626  -23.7852 S   0  0  0  0  0
   14.0936   19.6296  -23.4248 C   0  0  0  0  0
   13.3345   20.3941  -24.2995 C   0  0  0  0  0
   11.9504   20.5197  -24.1365 C   0  0  0  0  0
   11.2877   19.8232  -23.0777 C   0  0  0  0  0
   12.0947   19.0977  -22.1392 C   0  0  0  0  0
   13.4799   19.0146  -22.3431 C   0  0  0  0  0
    9.8628   19.8851  -23.0324 C   0  0  0  0  0
    8.5197   17.7877  -22.7234 C   0  0  0  0  0
    7.7408   16.9089  -21.8323 C   0  0  0  0  0
    7.3258   15.6465  -22.2723 C   0  0  0  0  0
    6.5894   14.7924  -21.4374 C   0  0  0  0  0
    6.6237   12.8492  -23.0952 C   0  0  0  0  0
    5.9147   11.6776  -23.6375 C   0  0  0  0  0
    6.2182   11.2216  -24.9276 C   0  0  0  0  0
    5.5659   10.1094  -25.4570 C   0  0  0  0  0
    4.6031    9.4453  -24.6971 C   0  0  0  0  0
    4.2808    9.8902  -23.4070 C   0  0  0  0  0
    4.9442   11.0042  -22.8789 C   0  0  0  0  0
    2.4552    8.1710  -23.0828 C   0  0  0  0  0
    1.3563    5.9337  -22.5916 C   0  0  0  0  0
    0.7525    5.1081  -21.6317 C   0  0  0  0  0
    0.2429    3.8504  -21.9932 C   0  0  0  0  0
    0.3509    3.4177  -23.3243 C   0  0  0  0  0
    0.9498    4.2360  -24.2827 C   0  0  0  0  0
    1.4500    5.4855  -23.9195 C   0  0  0  0  0
   -0.3861    2.9730  -20.9939 C   0  0  0  0  0
   -1.5458    2.7678  -18.7391 C   0  0  0  0  0
   -1.5505    3.1687  -17.3928 C   0  0  0  0  0
   -2.3043    2.4597  -16.4530 C   0  0  0  0  0
   -3.0740    1.3628  -16.8486 C   0  0  0  0  0
   -3.1085    0.9728  -18.1935 C   0  0  0  0  0
   -3.9429   -0.1627  -18.6281 C   0  0  0  0  0
   -5.3897   -2.1184  -18.0340 C   0  0  0  0  0
   -4.8765   -3.4394  -18.1960 C   0  0  0  0  0
   -3.5799   -3.8599  -17.7444 C   0  0  0  0  0
   -3.1258   -5.1454  -18.0617 C   0  0  0  0  0
   -3.9153   -6.0444  -18.7728 C   0  0  0  0  0
   -5.2043   -5.6813  -19.1429 C   0  0  0  0  0
   -5.7028   -4.4034  -18.8583 C   0  0  0  0  0
   -7.0173   -4.0757  -19.2449 C   0  0  0  0  0
   -7.5141   -2.8031  -18.9907 C   0  0  0  0  0
   -6.7229   -1.8298  -18.3936 C   0  0  0  0  0
   -2.3427    1.6799  -19.1276 C   0  0  0  0  0
   -0.7181    4.3135  -16.9299 C   0  0  0  0  0
    6.2467   15.2329  -20.1436 C   0  0  0  0  0
    6.6615   16.4921  -19.7011 C   0  0  0  0  0
    7.4084   17.3216  -20.5372 C   0  0  0  0  0
    5.4487   14.3812  -19.2206 C   0  0  0  0  0
    9.1634   20.7461  -23.9017 C   0  0  0  0  0
    9.8505   21.4596  -24.8797 C   0  0  0  0  0
   11.2247   21.3422  -25.0223 C   0  0  0  0  0
    9.1051   18.9910  -22.2109 N   0  0  0  0  0
    6.1478   13.5078  -21.9106 N   0  0  0  0  0
    3.3463    9.1741  -22.5896 N   0  0  0  0  0
    1.9393    7.1808  -22.1839 N   0  0  0  0  0
   -0.7389    3.4743  -19.6954 N   0  0  0  0  0
   -4.5394   -1.0306  -17.6552 N   0  0  0  0  0
 30 38  1  0  0  0
 30 29  1  0  0  0
 31 42  1  0  0  0
 31  5  1  0  0  0
 32 74  1  0  0  0
 32 13  1  0  0  0
 33 77  1  0  0  0
 33 16  1  0  0  0
 34 79  1  0  0  0
 34 19  1  0  0  0
 35 72  1  0  0  0
 35 22  1  0  0  0
 36 88  1  0  0  0
 36 25  1  0  0  0
 37 86  1  0  0  0
 37 28  1  0  0  0
 39 40  1  0  0  0
 41 42  1  0  0  0
 41 44  1  0  0  0
 43 38  1  0  0  0
 44 89  1  0  0  0
 45 46  1  0  0  0
 47 48  1  0  0  0
 48 90  1  0  0  0
 49 50  1  0  0  0
 51 52  1  0  0  0
 53 54  1  0  0  0
 54 91  1  0  0  0
 55 50  1  0  0  0
 56 92  1  0  0  0
 58 59  1  0  0  0
 59 63  1  0  0  0
 60 61  1  0  0  0
 62 57  1  0  0  0
 63 93  1  0  0  0
 65 66  1  0  0  0
 67 68  1  0  0  0
 68 69  1  0  0  0
 69 94  1  0  0  0
 70 71  1  0  0  0
 72 73  1  0  0  0
 74 75  1  0  0  0
 76 77  1  0  0  0
 76 71  1  0  0  0
 78 79  1  0  0  0
 80 64  1  0  0  0
 81 65  1  0  0  0
 82 83  1  0  0  0
 84 46  1  0  0  0
 85 82  1  0  0  0
 86 87  1  0  0  0
 88 40  1  0  0  0
 89 45  1  0  0  0
 90 49  1  0  0  0
 91 56  1  0  0  0
 92 57  1  0  0  0
 93 64  1  0  0  0
 94 70  1  0  0  0
 30  1  2  0  0  0
 30  2  2  0  0  0
 31  3  2  0  0  0
 31  4  2  0  0  0
 32 11  2  0  0  0
 32 12  2  0  0  0
 33 14  2  0  0  0
 33 15  2  0  0  0
 34 17  2  0  0  0
 34 18  2  0  0  0
 35 20  2  0  0  0
 35 21  2  0  0  0
 36 23  2  0  0  0
 36 24  2  0  0  0
 37 26  2  0  0  0
 37 27  2  0  0  0
 38 39  2  0  0  0
 40 41  2  0  0  0
 42 43  2  0  0  0
 44 86  2  0  0  0
 45  6  2  0  0  0
 46 47  2  0  0  0
 48 82  2  0  0  0
 49  7  2  0  0  0
 50 51  2  0  0  0
 52 53  2  0  0  0
 54 55  2  0  0  0
 56  8  2  0  0  0
 57 58  2  0  0  0
 59 60  2  0  0  0
 61 62  2  0  0  0
 63  9  2  0  0  0
 64 65  2  0  0  0
 66 67  2  0  0  0
 68 80  2  0  0  0
 69 10  2  0  0  0
 71 72  2  0  0  0
 73 74  2  0  0  0
 75 76  2  0  0  0
 77 78  2  0  0  0
 79 70  2  0  0  0
 83 84  2  0  0  0
 87 88  2  0  0  0
M  CHG  8   5  -1  13  -1  16  -1  19  -1  22  -1  25  -1  28  -1  29  -1
M  END
> <rmsd>
0.64162308

$$$$
CHEMBL3896045


 81 86  0  0  0  0  0  0  0  0999 V2000
   -1.4881   -7.7554  -18.6850 C   0  0  0  0  0
   -3.1323   -6.2330  -17.5229 C   0  0  0  0  0
   -4.5702   -6.6740  -17.7594 C   0  0  0  0  0
   -4.7400   -8.1378  -18.0101 C   0  0  0  0  0
   -5.6698   -7.7370  -20.2426 C   0  0  0  0  0
   -7.0354   -7.1088  -19.9927 C   0  0  0  0  0
   -6.8523   -5.7305  -19.3859 C   0  0  0  0  0
   -8.1853   -5.0185  -19.2210 C   0  0  0  0  0
   -8.3871   -3.9187  -20.2626 C   0  0  0  0  0
   -8.7950   -4.4694  -21.5891 C   0  0  0  0  0
   -7.1436   -1.8002  -20.1905 C   0  0  0  0  0
   -8.3329   -0.9944  -19.7486 C   0  0  0  0  0
   -8.3749   -0.5684  -17.3531 C   0  0  0  0  0
   -7.5443    0.6785  -17.5249 C   0  0  0  0  0
   -5.8643    0.6930  -15.7212 C   0  0  0  0  0
   -5.0174   -0.3966  -16.3214 C   0  0  0  0  0
   -5.1584   -2.8014  -15.9894 C   0  0  0  0  0
   -3.6853   -2.8873  -15.6842 C   0  0  0  0  0
   -3.1537   -4.7499  -17.3220 C   0  0  0  0  0
   -2.6257   -4.9034  -14.8459 C   0  0  0  0  0
   -2.6221   -3.8804  -13.7196 C   0  0  0  0  0
   -3.4582   -2.6925  -14.1931 C   0  0  0  0  0
   -1.1977   -3.4655  -13.3229 C   0  0  0  0  0
   -0.4470   -2.7324  -14.3904 C   0  0  0  0  0
   -0.1747   -1.3701  -14.2259 C   0  0  0  0  0
    0.5398   -0.6749  -15.2091 C   0  0  0  0  0
    0.9878   -1.3401  -16.3532 C   0  0  0  0  0
    0.7323   -2.7061  -16.5149 C   0  0  0  0  0
    0.0210   -3.4014  -15.5307 C   0  0  0  0  0
   -4.5511   -0.0778  -17.7392 C   0  0  0  0  0
   -3.4920    0.9779  -17.7384 C   0  0  0  0  0
   -2.2535    0.7446  -17.1242 C   0  0  0  0  0
   -1.2701    1.7392  -17.1289 C   0  0  0  0  0
   -1.5227    2.9677  -17.7463 C   0  0  0  0  0
   -2.7555    3.2016  -18.3623 C   0  0  0  0  0
   -3.7370    2.2057  -18.3646 C   0  0  0  0  0
   -8.3929    1.7949  -18.1136 C   0  0  0  0  0
   -7.5480    2.7132  -18.9848 C   0  0  0  0  0
   -6.7453    3.6881  -18.1459 C   0  0  0  0  0
   -7.1312    5.8057  -16.8270 C   0  0  0  0  0
   -9.5153   -1.1411  -20.7076 C   0  0  0  0  0
  -10.7554   -0.4891  -20.1840 C   0  0  0  0  0
  -10.9584    0.8678  -19.9347 C   0  0  0  0  0
  -12.7491   -0.1489  -19.3341 C   0  0  0  0  0
  -11.9081   -1.1233  -19.8021 C   0  0  0  0  0
  -12.2566   -2.4777  -19.8029 C   0  0  0  0  0
  -13.5285   -2.8211  -19.3044 C   0  0  0  0  0
  -14.4012   -1.8167  -18.8262 C   0  0  0  0  0
  -14.0130   -0.4586  -18.8356 C   0  0  0  0  0
   -0.6713   -8.0606  -19.9047 C   0  0  0  0  0
   -2.1130   -9.7547  -21.1017 C   0  0  0  0  0
   -2.3547  -11.1777  -21.4675 C   0  0  0  0  0
    0.8292   -7.8284  -19.6892 C   0  0  0  0  0
    1.4207   -8.5949  -18.5060 C   0  0  0  0  0
    1.5542  -10.0730  -18.8136 C   0  0  0  0  0
    2.2013  -12.1901  -17.5993 C   0  0  0  0  0
   -1.4718   -8.5381  -17.6910 O   0  0  0  0  0
   -7.9320   -4.9753  -22.3633 O   0  0  0  0  0
   -3.2712   -3.9793  -18.3158 O   0  0  0  0  0
   -5.9415   -3.9487  -15.9329 O   0  0  0  0  0
   -5.4461    1.2448  -14.5189 O   0  0  0  0  0
   -8.8112   -0.9347  -16.0871 O   0  0  0  0  0
   -5.9373   -1.1360  -20.3752 O   0  0  0  0  0
   -4.3747   -9.0407  -17.0201 O   0  0  0  0  0
   -2.9387   -8.8706  -21.4502 O   0  0  0  0  0
   -2.2823   -6.5700  -18.6585 N   0  0  0  0  0
   -5.2493   -8.5807  -19.1217 N   0  0  0  0  0
  -10.1549   -4.3774  -22.0031 N   0  0  0  0  0
   -7.1946   -3.0821  -20.3979 N   0  0  0  0  0
   -8.6986   -1.3133  -18.3679 N   0  0  0  0  0
   -6.9682    1.1276  -16.2594 N   0  0  0  0  0
   -5.7240   -1.6708  -16.2822 N   0  0  0  0  0
   -3.1693   -4.2078  -15.9961 N   0  0  0  0  0
   -7.6234    4.7110  -17.6013 N   0  0  0  0  0
   -5.8718    5.9145  -16.5634 N   0  0  0  0  0
   -8.0300    6.8096  -16.3751 N   0  0  0  0  0
  -12.1929    1.0737  -19.4101 N   0  0  0  0  0
   -0.9306   -9.4082  -20.3828 N   0  0  0  0  0
    2.0602  -10.7698  -17.6420 N   0  0  0  0  0
    1.8015  -12.9223  -18.5883 N   0  0  0  0  0
    2.6867  -12.8072  -16.4157 N   0  0  0  0  0
  1 66  1  0  0  0
  2 66  1  0  0  0
  2  3  1  0  0  0
  2 19  1  0  0  0
  3  4  1  0  0  0
  4 64  1  0  0  0
  5 67  1  0  0  0
  5  6  1  0  0  0
  6  7  1  0  0  0
  7  8  1  0  0  0
  8  9  1  0  0  0
  9 10  1  0  0  0
  9 69  1  0  0  0
 10 68  1  0  0  0
 11 63  1  0  0  0
 12 11  1  0  0  0
 12 70  1  0  0  0
 12 41  1  0  0  0
 13 62  1  0  0  0
 14 13  1  0  0  0
 14 71  1  0  0  0
 14 37  1  0  0  0
 15 61  1  0  0  0
 16 15  1  0  0  0
 16 72  1  0  0  0
 16 30  1  0  0  0
 17 60  1  0  0  0
 18 17  1  0  0  0
 18 73  1  0  0  0
 18 22  1  0  0  0
 20 73  1  0  0  0
 20 21  1  0  0  0
 21 22  1  0  0  0
 21 23  1  0  0  0
 23 24  1  0  0  0
 25 26  1  0  0  0
 27 28  1  0  0  0
 29 24  1  0  0  0
 30 31  1  0  0  0
 32 33  1  0  0  0
 34 35  1  0  0  0
 36 31  1  0  0  0
 37 38  1  0  0  0
 38 39  1  0  0  0
 39 74  1  0  0  0
 40 76  1  0  0  0
 41 42  1  0  0  0
 43 77  1  0  0  0
 45 46  1  0  0  0
 45 42  1  0  0  0
 47 48  1  0  0  0
 49 44  1  0  0  0
 50  1  1  0  0  0
 50 78  1  0  0  0
 50 53  1  0  0  0
 52 51  1  0  0  0
 53 54  1  0  0  0
 54 55  1  0  0  0
 55 79  1  0  0  0
 56 81  1  0  0  0
 73 19  1  0  0  0
 74 40  1  0  0  0
 77 44  1  0  0  0
 78 51  1  0  0  0
 79 56  1  0  0  0
  1 57  2  0  0  0
  4 67  2  0  0  0
 10 58  2  0  0  0
 11 69  2  0  0  0
 13 70  2  0  0  0
 15 71  2  0  0  0
 17 72  2  0  0  0
 19 59  2  0  0  0
 24 25  2  0  0  0
 26 27  2  0  0  0
 28 29  2  0  0  0
 31 32  2  0  0  0
 33 34  2  0  0  0
 35 36  2  0  0  0
 40 75  2  0  0  0
 42 43  2  0  0  0
 44 45  2  0  0  0
 46 47  2  0  0  0
 48 49  2  0  0  0
 51 65  2  0  0  0
 56 80  2  0  0  0
M  END
> <rmsd>
0.863199234

$$$$
CHEMBL4440387 PubChem-87134150


 33 35  0  0  0  0  0  0  0  0999 V2000
   -0.9474    3.3410  -14.2349 C   0  0  0  0  0
   -1.4749    2.4989  -16.4744 C   0  0  0  0  0
   -2.2530    1.6908  -17.2907 C   0  0  0  0  0
   -3.2415    0.9467  -16.7575 C   0  0  0  0  0
   -2.7696    1.7359  -14.6116 C   0  0  0  0  0
   -3.2248    0.6487  -18.8662 C   0  0  0  0  0
   -5.0373   -0.5826  -17.5983 C   0  0  0  0  0
   -6.2961    0.2036  -17.8941 C   0  0  0  0  0
   -7.1279   -0.7517  -18.7188 C   0  0  0  0  0
   -6.2915   -2.0084  -18.7652 C   0  0  0  0  0
   -6.3968   -2.6479  -20.1378 C   0  0  0  0  0
   -1.7461    2.5077  -15.1271 N   0  0  0  0  0
   -3.5274    0.9490  -15.4349 N   0  0  0  0  0
   -3.0538    1.7480  -13.2142 N   0  0  0  0  0
   -3.8633    0.2713  -17.7277 N   0  0  0  0  0
   -2.2098    1.5277  -18.6269 N   0  0  0  0  0
   -0.5505    3.2048  -16.9626 O   0  0  0  0  0
   -4.9593   -1.6639  -18.4910 O   0  0  0  0  0
   -5.7129   -3.8659  -20.1468 O   0  0  0  0  0
   -7.9641   -4.9975  -19.3636 O   0  0  0  0  0
   -7.6101   -4.7750  -21.9381 O   0  0  0  0  0
   -6.1947   -6.6074  -20.4512 O   0  0  0  0  0
   -3.9104   -5.9186  -19.3621 O   0  0  0  0  0
   -5.9333   -6.1620  -17.7069 O   0  0  0  0  0
   -4.7619   -8.3760  -18.9084 O   0  0  0  0  0
   -4.2126   -7.9229  -16.3541 O   0  0  0  0  0
   -3.2937  -10.1346  -17.3785 O   0  0  0  0  0
   -2.2040   -7.6976  -18.0249 O   0  0  0  0  0
   -8.3637   -1.0269  -18.1264 O   0  0  0  0  0
   -6.9227    0.5495  -16.6939 O   0  0  0  0  0
   -6.8932   -5.0549  -20.4317 P   0  0  0  0  0
   -5.1606   -6.7312  -19.1037 P   0  0  0  0  0
   -3.6420   -8.4995  -17.6309 P   0  0  0  0  0
  1 12  1  0  0  0
  2  3  1  0  0  0
  3 16  1  0  0  0
  4 13  1  0  0  0
  4 15  1  0  0  0
  5 14  1  0  0  0
  5 12  1  0  0  0
  7 15  1  0  0  0
  7  8  1  0  0  0
  7 18  1  0  0  0
  8  9  1  0  0  0
  8 30  1  0  0  0
  9 10  1  0  0  0
  9 29  1  0  0  0
 10 18  1  0  0  0
 10 11  1  0  0  0
 11 19  1  0  0  0
 12  2  1  0  0  0
 15  6  1  0  0  0
 31 19  1  0  0  0
 31 21  1  0  0  0
 31 22  1  0  0  0
 32 22  1  0  0  0
 32 24  1  0  0  0
 32 25  1  0  0  0
 33 25  1  0  0  0
 33 27  1  0  0  0
 33 28  1  0  0  0
  2 17  2  0  0  0
  3  4  2  0  0  0
  5 13  2  0  0  0
  6 16  2  0  0  0
 31 20  2  0  0  0
 32 23  2  0  0  0
 33 26  2  0  0  0
M  END
> <rmsd>
0.700594306

$$$$
CHEMBL1651411 PubChem-53316507


 88 92  0  0  0  0  0  0  0  0999 V2000
   -2.1677    4.2790  -15.9297 C   0  0  0  0  0
   -2.6205    3.1828  -15.1832 C   0  0  0  0  0
   -2.7787    1.9315  -15.7810 C   0  0  0  0  0
   -2.4772    1.7596  -17.1532 C   0  0  0  0  0
   -2.0283    2.8706  -17.8998 C   0  0  0  0  0
   -1.8761    4.1145  -17.2845 C   0  0  0  0  0
   -1.8594    1.6087  -19.8619 C   0  0  0  0  0
   -2.2964    0.4428  -19.1923 C   0  0  0  0  0
   -2.6015    0.5263  -17.8209 C   0  0  0  0  0
   -3.5408   -1.6331  -19.8741 C   0  0  0  0  0
   -4.8714   -0.8658  -19.8803 C   0  0  0  0  0
   -5.9812   -1.6816  -19.1975 C   0  0  0  0  0
   -5.7784   -3.1889  -19.4143 C   0  0  0  0  0
   -4.3184   -3.6221  -19.1442 C   0  0  0  0  0
   -4.3087   -4.6478  -18.0257 C   0  0  0  0  0
   -2.9715   -5.8612  -16.7390 C   0  0  0  0  0
   -3.3044   -7.3582  -16.7129 C   0  0  0  0  0
   -3.2141   -7.8264  -15.2547 C   0  0  0  0  0
   -1.8768   -7.4107  -14.6305 C   0  0  0  0  0
   -1.6613   -5.9085  -14.8914 C   0  0  0  0  0
   -0.3362   -5.4476  -14.3068 C   0  0  0  0  0
   -1.5385    1.6416  -21.3121 C   0  0  0  0  0
   -1.4372    0.4766  -22.0849 C   0  0  0  0  0
   -1.1632    0.5495  -23.4490 C   0  0  0  0  0
   -0.9783    1.7934  -24.0718 C   0  0  0  0  0
   -1.0502    2.9681  -23.3082 C   0  0  0  0  0
   -1.3330    2.8809  -21.9353 C   0  0  0  0  0
   -0.9974    5.4536  -23.2621 C   0  0  0  0  0
   -2.4687    5.8219  -23.1560 C   0  0  0  0  0
   -0.8474    0.7632  -26.3214 C   0  0  0  0  0
   -2.2881    0.6177  -26.7995 C   0  0  0  0  0
   -2.2359    5.7908  -13.9725 C   0  0  0  0  0
   -2.0274    7.2638  -13.6750 C   0  0  0  0  0
   -1.7493    2.7513  -19.1881 O   0  0  0  0  0
   -2.9593   -0.5046  -17.1935 O   0  0  0  0  0
   -2.4094   -0.7640  -19.9010 O   0  0  0  0  0
   -3.4755   -2.5411  -18.8029 O   0  0  0  0  0
   -3.0992   -5.3516  -18.0322 O   0  0  0  0  0
   -1.6586   -5.6525  -16.2746 O   0  0  0  0  0
   -1.8940   -7.6564  -13.2526 O   0  0  0  0  0
   -0.3024   -8.8141  -11.5567 O   0  0  0  0  0
    0.3719   -8.8628  -13.9058 O   0  0  0  0  0
   -1.5896  -10.3960  -13.1585 O   0  0  0  0  0
   -3.4060   -9.2110  -15.1644 O   0  0  0  0  0
   -5.2513  -10.8724  -14.3882 O   0  0  0  0  0
   -5.9690   -8.6411  -15.0723 O   0  0  0  0  0
   -4.7491   -8.8928  -12.7833 O   0  0  0  0  0
   -2.4011   -8.0662  -17.5181 O   0  0  0  0  0
   -2.4288   -9.3639  -19.7700 O   0  0  0  0  0
   -4.4204   -8.0682  -19.2000 O   0  0  0  0  0
   -3.9865  -10.2958  -17.9179 O   0  0  0  0  0
   -6.1177   -3.5051  -20.7360 O   0  0  0  0  0
   -6.2776   -6.0962  -20.4721 O   0  0  0  0  0
   -7.8796   -4.9793  -21.9548 O   0  0  0  0  0
   -8.2146   -4.7331  -19.3925 O   0  0  0  0  0
   -5.9817   -1.3942  -17.8283 O   0  0  0  0  0
   -7.6319   -0.5506  -16.0115 O   0  0  0  0  0
   -8.3186   -0.3020  -18.3432 O   0  0  0  0  0
   -8.3553   -2.6876  -17.2894 O   0  0  0  0  0
   -5.2195   -0.5572  -21.2011 O   0  0  0  0  0
   -5.4765    1.6527  -22.5481 O   0  0  0  0  0
   -5.0694    1.8641  -20.1500 O   0  0  0  0  0
   -7.4181    1.0685  -20.9228 O   0  0  0  0  0
   -0.8486    4.2061  -23.9328 O   0  0  0  0  0
   -2.9972    6.0406  -24.4308 O   0  0  0  0  0
   -5.3117    6.0232  -25.6136 O   0  0  0  0  0
   -4.8339    4.2235  -24.0251 O   0  0  0  0  0
   -5.3434    6.5987  -23.0803 O   0  0  0  0  0
   -0.7296    1.8810  -25.4471 O   0  0  0  0  0
   -3.1349    0.3354  -25.7222 O   0  0  0  0  0
   -5.0935   -0.0035  -27.4171 O   0  0  0  0  0
   -3.6998   -1.9546  -26.8573 O   0  0  0  0  0
   -5.3855   -1.0848  -25.0796 O   0  0  0  0  0
   -3.2446    0.8807  -14.9974 O   0  0  0  0  0
   -2.0023    5.5405  -15.3531 O   0  0  0  0  0
   -0.6995    7.6136  -13.9307 O   0  0  0  0  0
   -0.6964    9.3256  -11.9630 O   0  0  0  0  0
    0.8192    9.7149  -13.8517 O   0  0  0  0  0
   -1.7097   10.1704  -14.2192 O   0  0  0  0  0
   -0.8058   -8.9219  -12.9671 S   0  0  0  0  0
   -4.8831   -9.4155  -14.3743 S   0  0  0  0  0
   -3.3212   -8.9307  -18.6418 S   0  0  0  0  0
   -7.1160   -4.8632  -20.6628 S   0  0  0  0  0
   -7.5941   -1.1904  -17.3688 S   0  0  0  0  0
   -5.7614    1.0460  -21.2039 S   0  0  0  0  0
   -4.6435    5.6876  -24.3108 S   0  0  0  0  0
   -4.3260   -0.6947  -26.3240 S   0  0  0  0  0
   -0.5459    9.2208  -13.4552 S   0  0  0  0  0
  1 75  1  0  0  0
  2  3  1  0  0  0
  3 74  1  0  0  0
  4  5  1  0  0  0
  5 34  1  0  0  0
  6  1  1  0  0  0
  7 34  1  0  0  0
  7 22  1  0  0  0
  8  9  1  0  0  0
  8 36  1  0  0  0
  9  4  1  0  0  0
 10 36  1  0  0  0
 10 11  1  0  0  0
 10 37  1  0  0  0
 11 12  1  0  0  0
 11 60  1  0  0  0
 12 13  1  0  0  0
 12 56  1  0  0  0
 13 14  1  0  0  0
 13 52  1  0  0  0
 14 37  1  0  0  0
 14 15  1  0  0  0
 15 38  1  0  0  0
 16 38  1  0  0  0
 16 17  1  0  0  0
 16 39  1  0  0  0
 17 18  1  0  0  0
 17 48  1  0  0  0
 18 19  1  0  0  0
 18 44  1  0  0  0
 19 20  1  0  0  0
 19 40  1  0  0  0
 20 39  1  0  0  0
 20 21  1  0  0  0
 23 24  1  0  0  0
 25 26  1  0  0  0
 25 69  1  0  0  0
 26 64  1  0  0  0
 27 22  1  0  0  0
 28 64  1  0  0  0
 28 29  1  0  0  0
 29 65  1  0  0  0
 30 69  1  0  0  0
 30 31  1  0  0  0
 31 70  1  0  0  0
 32 75  1  0  0  0
 32 33  1  0  0  0
 33 76  1  0  0  0
 80 40  1  0  0  0
 80 43  1  0  0  0
 81 44  1  0  0  0
 81 47  1  0  0  0
 82 48  1  0  0  0
 82 51  1  0  0  0
 83 52  1  0  0  0
 83 55  1  0  0  0
 84 56  1  0  0  0
 84 59  1  0  0  0
 85 60  1  0  0  0
 85 63  1  0  0  0
 86 65  1  0  0  0
 86 68  1  0  0  0
 87 70  1  0  0  0
 87 73  1  0  0  0
 88 76  1  0  0  0
 88 79  1  0  0  0
  1  2  2  0  0  0
  3  4  2  0  0  0
  5  6  2  0  0  0
  7  8  2  0  0  0
  9 35  2  0  0  0
 22 23  2  0  0  0
 24 25  2  0  0  0
 26 27  2  0  0  0
 80 41  2  0  0  0
 80 42  2  0  0  0
 81 45  2  0  0  0
 81 46  2  0  0  0
 82 49  2  0  0  0
 82 50  2  0  0  0
 83 53  2  0  0  0
 83 54  2  0  0  0
 84 57  2  0  0  0
 84 58  2  0  0  0
 85 61  2  0  0  0
 85 62  2  0  0  0
 86 66  2  0  0  0
 86 67  2  0  0  0
 87 71  2  0  0  0
 87 72  2  0  0  0
 88 77  2  0  0  0
 88 78  2  0  0  0
M  END
> <rmsd>
0.566067457

$$$$
CHEMBL220234 PubChem-44413860


 93104  0  0  0  0  0  0  0  0999 V2000
    2.5432    8.1571  -10.5472 N   0  0  0  0  0
    0.3150    8.2427  -11.3885 N   0  0  0  0  0
    3.1187    6.8550   -8.5802 N   0  0  0  0  0
    0.2081    6.1463   -8.5780 N   0  0  0  0  0
   -1.2646    6.9360  -10.1090 N   0  0  0  0  0
   -3.9919    1.4915  -17.6868 N   0  0  0  0  0
   -4.1026    3.7053  -18.6518 N   0  0  0  0  0
   -2.6204    4.0277  -20.4878 N   0  0  0  0  0
   -2.4062    0.6663  -19.0818 N   0  0  0  0  0
   -1.1533    2.2669  -21.2757 N   0  0  0  0  0
   -5.1936   -5.5337  -20.2968 N   0  0  0  0  0
   -7.0242   -4.8468  -21.7150 N   0  0  0  0  0
   -6.4022   -4.4788  -23.9824 N   0  0  0  0  0
   -3.5930   -5.5300  -21.9044 N   0  0  0  0  0
   -4.1296   -4.8108  -24.7619 N   0  0  0  0  0
   -6.4080  -10.6921  -23.5244 N   0  0  0  0  0
   -7.7662  -10.8261  -25.5233 N   0  0  0  0  0
   -7.9171  -13.0155  -26.4475 N   0  0  0  0  0
   -5.8425  -12.8852  -23.4435 N   0  0  0  0  0
   -6.7784  -14.9058  -25.4370 N   0  0  0  0  0
    1.6302    8.6174  -11.4667 C   0  0  0  0  0
   -0.0464    7.4126  -10.3798 C   0  0  0  0  0
    0.8317    6.9443   -9.4652 C   0  0  0  0  0
    2.1689    7.3119   -9.5388 C   0  0  0  0  0
   -1.0896    6.1629   -9.0030 C   0  0  0  0  0
   -2.5026    7.2068  -10.8311 C   0  0  0  0  0
   -3.0395    5.9532  -11.4672 C   0  0  0  0  0
   -3.8766    2.0947  -13.2502 C   0  0  0  0  0
   -4.8330    1.7532  -14.3860 C   0  0  0  0  0
   -4.9553    0.2689  -14.6609 C   0  0  0  0  0
   -5.4255    0.2566  -16.0836 C   0  0  0  0  0
   -4.9829    1.6157  -16.6203 C   0  0  0  0  0
   -3.6258    2.4414  -18.5528 C   0  0  0  0  0
   -3.5884    4.5045  -19.6365 C   0  0  0  0  0
   -2.1446    2.7526  -20.3765 C   0  0  0  0  0
   -2.6782    1.9498  -19.3817 C   0  0  0  0  0
   -3.2352    0.4137  -18.0285 C   0  0  0  0  0
   -6.2682   -2.9628  -16.7681 C   0  0  0  0  0
   -6.3210   -4.4033  -17.2305 C   0  0  0  0  0
   -5.0604   -5.1282  -16.8521 C   0  0  0  0  0
   -4.9540   -6.1907  -17.9194 C   0  0  0  0  0
   -5.8836   -5.6812  -19.0163 C   0  0  0  0  0
   -5.7349   -5.1771  -21.4658 C   0  0  0  0  0
   -7.3536   -4.4876  -22.9931 C   0  0  0  0  0
   -5.1050   -4.8199  -23.7230 C   0  0  0  0  0
   -4.7799   -5.1711  -22.4221 C   0  0  0  0  0
   -3.8830   -5.7458  -20.5874 C   0  0  0  0  0
   -5.6293   -9.2767  -19.8736 C   0  0  0  0  0
   -6.2234   -8.5612  -21.0708 C   0  0  0  0  0
   -7.6712   -8.9338  -21.2252 C   0  0  0  0  0
   -7.8735   -8.9078  -22.7114 C   0  0  0  0  0
   -6.4897   -9.2613  -23.2170 C   0  0  0  0  0
   -6.9821  -11.3400  -24.5462 C   0  0  0  0  0
   -8.2388  -11.6800  -26.4826 C   0  0  0  0  0
   -7.1197  -13.5234  -25.4608 C   0  0  0  0  0
   -6.6478  -12.6472  -24.4940 C   0  0  0  0  0
   -5.7091  -11.6554  -22.8668 C   0  0  0  0  0
   -4.5119    6.2463  -11.5508 C   0  0  0  0  0
   -4.7268    7.2537  -10.4447 C   0  0  0  0  0
   -5.5094    6.5953   -9.3265 C   0  0  0  0  0
   -2.4609    5.7504  -12.7281 O   0  0  0  0  0
   -1.7206    3.7678  -14.2673 O   0  0  0  0  0
   -3.9828    3.4564  -12.9528 O   0  0  0  0  0
   -4.4487    2.3922  -15.5748 O   0  0  0  0  0
   -6.8224    0.1918  -16.1082 O   0  0  0  0  0
   -6.2434   -0.7314  -18.5501 O   0  0  0  0  0
   -7.5275   -2.3830  -16.9245 O   0  0  0  0  0
   -6.4371   -4.4505  -18.6267 O   0  0  0  0  0
   -5.4209   -7.4300  -17.4498 O   0  0  0  0  0
   -4.5457   -9.8923  -17.2425 O   0  0  0  0  0
   -4.3439   -8.7891  -19.6197 O   0  0  0  0  0
   -5.5308   -8.9151  -22.2415 O   0  0  0  0  0
   -8.2040   -7.6127  -23.1378 O   0  0  0  0  0
   -8.9921   -8.1338  -25.5836 O   0  0  0  0  0
  -10.5763   -8.9805  -23.6746 O   0  0  0  0  0
  -10.3381   -6.3046  -24.2822 O   0  0  0  0  0
   -8.4873   -8.0054  -20.5748 O   0  0  0  0  0
   -2.7131   -8.0554  -17.5190 O   0  0  0  0  0
   -5.1779   -5.6774  -15.5687 O   0  0  0  0  0
   -8.7322   -0.1957  -18.0407 O   0  0  0  0  0
   -3.7130   -0.3603  -14.5944 O   0  0  0  0  0
   -1.5115    3.3553  -11.6911 O   0  0  0  0  0
   -4.8327    6.8440  -12.7732 O   0  0  0  0  0
   -3.4826    7.7033   -9.9551 O   0  0  0  0  0
   -5.9005    7.5530   -8.3873 O   0  0  0  0  0
   -6.5784    5.6882   -6.6664 O   0  0  0  0  0
   -8.3429    6.2369   -8.5346 O   0  0  0  0  0
   -7.8205    7.9764   -6.4574 O   0  0  0  0  0
   -2.3984    4.0669  -12.9469 P   0  0  0  0  0
   -7.2684   -0.7826  -17.4339 P   0  0  0  0  0
   -4.2667   -8.5770  -17.9401 P   0  0  0  0  0
   -9.5107   -7.7790  -24.2071 P   0  0  0  0  0
   -7.1447    6.8240   -7.4931 P   0  0  0  0  0
  5 22  1  0  0  0
  6 33  1  0  0  0
 11 43  1  0  0  0
 16 53  1  0  0  0
 21  2  1  0  0  0
 22 23  1  0  0  0
 23  4  1  0  0  0
 24  3  1  0  0  0
 24  1  1  0  0  0
 25  5  1  0  0  0
 26  5  1  0  0  0
 26 27  1  0  0  0
 26 84  1  0  0  0
 27 61  1  0  0  0
 27 58  1  0  0  0
 28 63  1  0  0  0
 29 28  1  0  0  0
 29 30  1  0  0  0
 29 64  1  0  0  0
 30 31  1  0  0  0
 30 81  1  0  0  0
 31 32  1  0  0  0
 31 65  1  0  0  0
 32  6  1  0  0  0
 32 64  1  0  0  0
 34  7  1  0  0  0
 35  8  1  0  0  0
 35 10  1  0  0  0
 36  9  1  0  0  0
 36 33  1  0  0  0
 37  6  1  0  0  0
 38 67  1  0  0  0
 39 38  1  0  0  0
 39 40  1  0  0  0
 39 68  1  0  0  0
 40 41  1  0  0  0
 40 79  1  0  0  0
 41 42  1  0  0  0
 41 69  1  0  0  0
 42 11  1  0  0  0
 42 68  1  0  0  0
 44 12  1  0  0  0
 45 13  1  0  0  0
 45 15  1  0  0  0
 46 14  1  0  0  0
 46 43  1  0  0  0
 47 11  1  0  0  0
 48 71  1  0  0  0
 49 48  1  0  0  0
 49 50  1  0  0  0
 49 72  1  0  0  0
 50 51  1  0  0  0
 50 77  1  0  0  0
 51 52  1  0  0  0
 51 73  1  0  0  0
 52 16  1  0  0  0
 52 72  1  0  0  0
 54 17  1  0  0  0
 55 18  1  0  0  0
 55 20  1  0  0  0
 56 19  1  0  0  0
 56 53  1  0  0  0
 57 16  1  0  0  0
 58 83  1  0  0  0
 58 59  1  0  0  0
 59 84  1  0  0  0
 59 60  1  0  0  0
 60 85  1  0  0  0
 89 61  1  0  0  0
 89 63  1  0  0  0
 89 82  1  0  0  0
 90 65  1  0  0  0
 90 67  1  0  0  0
 90 80  1  0  0  0
 91 69  1  0  0  0
 91 71  1  0  0  0
 91 78  1  0  0  0
 92 73  1  0  0  0
 92 75  1  0  0  0
 92 76  1  0  0  0
 93 85  1  0  0  0
 93 87  1  0  0  0
 93 88  1  0  0  0
 21  1  2  0  0  0
 22  2  2  0  0  0
 23 24  2  0  0  0
 25  4  2  0  0  0
 33  7  2  0  0  0
 34  8  2  0  0  0
 35 36  2  0  0  0
 37  9  2  0  0  0
 43 12  2  0  0  0
 44 13  2  0  0  0
 45 46  2  0  0  0
 47 14  2  0  0  0
 53 17  2  0  0  0
 54 18  2  0  0  0
 55 56  2  0  0  0
 57 19  2  0  0  0
 89 62  2  0  0  0
 90 66  2  0  0  0
 91 70  2  0  0  0
 92 74  2  0  0  0
 93 86  2  0  0  0
M  END
> <rmsd>
0.694786191

$$$$
CHEMBL2086768


 49 52  0  0  0  0  0  0  0  0999 V2000
   -6.4432   -8.1605  -21.6321 B   0  0  0  0  0
   -5.4510   -7.1264  -20.4071 P   0  0  0  0  0
   -7.1707   -5.0782  -19.6820 P   0  0  0  0  0
   -3.2172   -7.2064  -18.7943 P   0  0  0  0  0
   -4.7709   -6.0023  -21.1626 O   0  0  0  0  0
   -6.4950   -6.5590  -19.1804 O   0  0  0  0  0
   -7.7734   -5.2055  -21.0650 O   0  0  0  0  0
   -8.3926   -4.6598  -18.5883 O   0  0  0  0  0
   -5.9659   -3.8818  -19.6771 O   0  0  0  0  0
   -5.2505   -1.5849  -18.2227 O   0  0  0  0  0
   -1.4088    1.4355  -15.2337 O   0  0  0  0  0
   -0.4683    2.1584  -17.7037 O   0  0  0  0  0
   -4.0968    0.5227  -19.8524 O   0  0  0  0  0
   -7.1713    0.9562  -16.8875 O   0  0  0  0  0
   -8.6041   -0.6123  -18.3401 O   0  0  0  0  0
   -4.2905   -8.1591  -19.7127 O   0  0  0  0  0
   -3.9699   -6.3074  -17.8330 O   0  0  0  0  0
   -2.2798   -6.2478  -19.8276 O   0  0  0  0  0
   -2.1718   -8.2419  -17.9417 O   0  0  0  0  0
   -3.9991  -10.4860  -18.0254 O   0  0  0  0  0
   -6.1463  -14.1436  -21.8089 O   0  0  0  0  0
   -4.7603  -12.5423  -23.7279 O   0  0  0  0  0
   -2.4451  -10.3929  -20.5017 O   0  0  0  0  0
   -2.1914  -13.3643  -17.4271 O   0  0  0  0  0
   -1.4256  -11.4598  -15.8693 O   0  0  0  0  0
   -6.6312   -2.6685  -19.8612 C   0  0  0  0  0
   -6.5809   -1.8467  -18.5840 C   0  0  0  0  0
   -5.3043   -0.3921  -17.4832 C   0  0  0  0  0
   -3.3616    0.5510  -16.4100 C   0  0  0  0  0
   -2.1181    1.1926  -16.4152 C   0  0  0  0  0
   -1.8992    1.0607  -13.9532 C   0  0  0  0  0
   -1.5878    1.5843  -17.6462 C   0  0  0  0  0
   -3.4901    0.7276  -18.7658 C   0  0  0  0  0
   -6.4624    0.4513  -17.9808 C   0  0  0  0  0
   -7.2841   -0.5254  -18.7920 C   0  0  0  0  0
   -2.8940   -8.7104  -16.8348 C   0  0  0  0  0
   -3.1565  -10.2102  -16.9393 C   0  0  0  0  0
   -3.6929  -11.8013  -18.4096 C   0  0  0  0  0
   -4.8683  -12.9249  -20.1874 C   0  0  0  0  0
   -5.1868  -13.1596  -21.5246 C   0  0  0  0  0
   -6.5597  -14.5133  -23.1180 C   0  0  0  0  0
   -4.5223  -12.3909  -22.5008 C   0  0  0  0  0
   -3.3103  -11.2565  -20.8077 C   0  0  0  0  0
   -2.2532  -12.1141  -18.0473 C   0  0  0  0  0
   -1.8709  -10.9923  -17.1099 C   0  0  0  0  0
   -4.0321    0.3256  -17.5719 N   0  0  0  0  0
   -2.2815    1.3467  -18.7891 N   0  0  0  0  0
   -3.9442  -11.9900  -19.8385 N   0  0  0  0  0
   -3.6059  -11.4637  -22.1171 N   0  0  0  0  0
  2  1  1  0  0  0
  2  6  1  0  0  0
  2 16  1  0  0  0
  3  6  1  0  0  0
  3  8  1  0  0  0
  3  9  1  0  0  0
  4 16  1  0  0  0
  4 18  1  0  0  0
  4 19  1  0  0  0
 26  9  1  0  0  0
 27 26  1  0  0  0
 27 10  1  0  0  0
 28 10  1  0  0  0
 28 46  1  0  0  0
 28 34  1  0  0  0
 30 11  1  0  0  0
 30 32  1  0  0  0
 31 11  1  0  0  0
 32 47  1  0  0  0
 33 46  1  0  0  0
 34 14  1  0  0  0
 34 35  1  0  0  0
 35 15  1  0  0  0
 35 27  1  0  0  0
 36 19  1  0  0  0
 37 36  1  0  0  0
 37 20  1  0  0  0
 38 20  1  0  0  0
 38 48  1  0  0  0
 38 44  1  0  0  0
 40 21  1  0  0  0
 40 42  1  0  0  0
 41 21  1  0  0  0
 42 49  1  0  0  0
 43 48  1  0  0  0
 44 24  1  0  0  0
 44 45  1  0  0  0
 45 25  1  0  0  0
 45 37  1  0  0  0
 46 29  1  0  0  0
 47 33  1  0  0  0
 48 39  1  0  0  0
 49 43  1  0  0  0
  2  5  2  0  0  0
  3  7  2  0  0  0
  4 17  2  0  0  0
 29 30  2  0  0  0
 32 12  2  0  0  0
 33 13  2  0  0  0
 39 40  2  0  0  0
 42 22  2  0  0  0
 43 23  2  0  0  0
M  END
> <rmsd>
0.691357315

$$$$
CHEMBL1229258 PubChem-49864050


 54 57  0  0  0  0  0  0  0  0999 V2000
   -3.7611   -5.5132  -19.0012 C   0  0  0  0  0
   -2.9458   -4.5074  -18.4112 C   0  0  0  0  0
   -1.8540   -4.9079  -17.5893 C   0  0  0  0  0
   -1.5739   -6.2743  -17.3767 C   0  0  0  0  0
   -2.3900   -7.2468  -17.9819 C   0  0  0  0  0
   -3.4747   -6.8682  -18.7778 C   0  0  0  0  0
   -0.4169   -6.6793  -16.4937 C   0  0  0  0  0
    0.6329   -7.4619  -17.2576 C   0  0  0  0  0
   -0.8844   -7.4488  -15.2728 C   0  0  0  0  0
   -1.0507   -3.9352  -16.9800 C   0  0  0  0  0
   -1.2941   -2.5788  -17.1574 C   0  0  0  0  0
   -2.3619   -2.1614  -17.9674 C   0  0  0  0  0
   -2.6663   -0.7202  -18.1353 C   0  0  0  0  0
   -3.6670   -0.1285  -17.3448 C   0  0  0  0  0
   -4.0167    1.2397  -17.5232 C   0  0  0  0  0
   -5.0360    1.8783  -16.7650 C   0  0  0  0  0
   -5.3257    3.2346  -16.9766 C   0  0  0  0  0
   -4.6288    3.9696  -17.9344 C   0  0  0  0  0
   -3.6285    3.3673  -18.7085 C   0  0  0  0  0
   -3.3172    2.0003  -18.5027 C   0  0  0  0  0
   -2.3194    1.3850  -19.2693 C   0  0  0  0  0
   -1.9915    0.0458  -19.0979 C   0  0  0  0  0
   -0.9279   -0.5402  -19.9648 C   0  0  0  0  0
   -2.9372    4.2186  -19.7484 C   0  0  0  0  0
   -1.4461    4.3595  -19.4856 C   0  0  0  0  0
   -3.2014    3.7218  -21.1614 C   0  0  0  0  0
   -5.8819    1.1397  -15.7758 C   0  0  0  0  0
   -8.0710   -0.2801  -15.9233 C   0  0  0  0  0
   -7.9558   -0.8958  -14.7141 C   0  0  0  0  0
   -6.7872   -0.6870  -13.8074 C   0  0  0  0  0
   -7.1177    0.3509  -12.7530 C   0  0  0  0  0
   -8.9794   -1.8517  -14.1933 C   0  0  0  0  0
   -9.2359   -0.5181  -16.8245 C   0  0  0  0  0
   -3.1768   -3.1162  -18.6026 C   0  0  0  0  0
   -0.4084   -1.6013  -16.4604 C   0  0  0  0  0
   -4.9708   -5.1898  -19.8223 C   0  0  0  0  0
   -7.3563   -4.3806  -19.3680 C   0  0  0  0  0
   -8.2539   -4.0194  -18.4255 C   0  0  0  0  0
   -7.9348   -4.1243  -16.9645 C   0  0  0  0  0
   -7.9925   -5.5734  -16.5067 C   0  0  0  0  0
   -9.5998   -3.4758  -18.7684 C   0  0  0  0  0
   -7.6428   -4.2246  -20.8161 C   0  0  0  0  0
   -4.2777   -7.8553  -19.3491 O   0  0  0  0  0
   -2.1318   -8.6021  -17.7899 O   0  0  0  0  0
   -4.9404    5.3133  -18.1202 O   0  0  0  0  0
   -6.3199    3.8634  -16.2316 O   0  0  0  0  0
   -9.1991   -0.0746  -18.0037 O   0  0  0  0  0
  -10.3775   -1.1858  -16.4026 O   0  0  0  0  0
   -4.2926   -0.9181  -16.3842 O   0  0  0  0  0
   -4.2044   -2.6583  -19.4240 O   0  0  0  0  0
   -7.1511   -5.0388  -21.6487 O   0  0  0  0  0
   -8.4463   -3.1801  -21.2779 O   0  0  0  0  0
   -7.0675    0.6227  -16.4432 N   0  0  0  0  0
   -6.1037   -4.9284  -18.9380 N   0  0  0  0  0
  2  3  1  0  0  0
  3 10  1  0  0  0
  4  5  1  0  0  0
  5 44  1  0  0  0
  6 43  1  0  0  0
  6  1  1  0  0  0
  7  4  1  0  0  0
  7  8  1  0  0  0
  7  9  1  0  0  0
 11 12  1  0  0  0
 12 13  1  0  0  0
 14 15  1  0  0  0
 14 49  1  0  0  0
 16 17  1  0  0  0
 17 46  1  0  0  0
 18 19  1  0  0  0
 18 45  1  0  0  0
 20 21  1  0  0  0
 20 15  1  0  0  0
 22 13  1  0  0  0
 23 22  1  0  0  0
 24 19  1  0  0  0
 24 25  1  0  0  0
 24 26  1  0  0  0
 27 16  1  0  0  0
 27 53  1  0  0  0
 28 33  1  0  0  0
 30 29  1  0  0  0
 30 31  1  0  0  0
 32 29  1  0  0  0
 33 48  1  0  0  0
 34 50  1  0  0  0
 34  2  1  0  0  0
 35 11  1  0  0  0
 36  1  1  0  0  0
 36 54  1  0  0  0
 37 42  1  0  0  0
 39 38  1  0  0  0
 39 40  1  0  0  0
 41 38  1  0  0  0
 42 52  1  0  0  0
 53 28  1  0  0  0
 54 37  1  0  0  0
  1  2  2  0  0  0
  3  4  2  0  0  0
  5  6  2  0  0  0
 10 11  2  0  0  0
 12 34  2  0  0  0
 13 14  2  0  0  0
 15 16  2  0  0  0
 17 18  2  0  0  0
 19 20  2  0  0  0
 21 22  2  0  0  0
 28 29  2  0  0  0
 33 47  2  0  0  0
 37 38  2  0  0  0
 42 51  2  0  0  0
M  END
> <rmsd>
0.628112197

$$$$
CHEMBL1206797 PubChem-44311308


 52 55  0  0  0  0  0  0  0  0999 V2000
   -5.6571    0.0040  -14.0007 O   0  0  0  0  0
   -2.2854   -2.9729  -14.5065 O   0  0  0  0  0
   -5.4772   -3.3870  -15.8334 O   0  0  0  0  0
   -7.3546   -2.7576  -16.9876 O   0  0  0  0  0
   -6.6504   -1.0816  -18.9002 O   0  0  0  0  0
   -7.0920   -0.1780  -16.6564 O   0  0  0  0  0
   -9.1055   -0.9642  -18.0858 O   0  0  0  0  0
   -6.0491   -4.0070  -19.3523 O   0  0  0  0  0
   -8.6557   -4.1833  -19.4248 O   0  0  0  0  0
   -7.3966   -4.7248  -21.4527 O   0  0  0  0  0
   -7.3620   -6.4407  -19.5120 O   0  0  0  0  0
   -4.8462   -6.2657  -17.0016 O   0  0  0  0  0
   -2.6279   -7.5177  -17.5725 O   0  0  0  0  0
   -4.6429   -8.8476  -17.1716 O   0  0  0  0  0
   -4.4654   -7.5653  -19.4186 O   0  0  0  0  0
   -3.1580   -3.2779  -18.1285 O   0  0  0  0  0
   -1.2398   -2.7903  -19.8104 O   0  0  0  0  0
   -0.6323   -3.7416  -17.6376 O   0  0  0  0  0
   -1.7595   -5.2934  -19.4015 O   0  0  0  0  0
   -4.5491   -0.1857  -13.4295 C   0  0  0  0  0
   -5.6276   -0.0664  -11.1376 C   0  0  0  0  0
   -5.2697   -0.4403   -9.6970 C   0  0  0  0  0
   -4.2895    0.5652   -9.0898 C   0  0  0  0  0
   -4.8724    1.9746   -9.1477 C   0  0  0  0  0
   -5.1678    2.3582  -10.5925 C   0  0  0  0  0
   -6.1579    1.3712  -11.2073 C   0  0  0  0  0
   -3.2922   -0.3181  -14.2351 C   0  0  0  0  0
   -2.6435    0.9983  -14.5571 C   0  0  0  0  0
   -1.2508    1.1031  -14.4788 C   0  0  0  0  0
   -0.6142    2.3008  -14.8145 C   0  0  0  0  0
   -1.3682    3.3995  -15.2344 C   0  0  0  0  0
   -2.7591    3.3008  -15.3186 C   0  0  0  0  0
   -3.3964    2.1036  -14.9833 C   0  0  0  0  0
   -4.0692   -0.6779  -16.6448 C   0  0  0  0  0
   -3.0580   -0.0018  -17.5193 C   0  0  0  0  0
   -1.7212   -0.4241  -17.5577 C   0  0  0  0  0
   -0.8030    0.2220  -18.3902 C   0  0  0  0  0
   -1.2195    1.2855  -19.1959 C   0  0  0  0  0
   -2.5545    1.6995  -19.1715 C   0  0  0  0  0
   -3.4723    1.0540  -18.3376 C   0  0  0  0  0
   -3.2250   -2.5892  -15.2519 C   0  0  0  0  0
   -4.0793   -3.6321  -15.9134 C   0  0  0  0  0
   -6.0144   -3.1389  -17.1147 C   0  0  0  0  0
   -5.9316   -4.3870  -18.0121 C   0  0  0  0  0
   -4.6180   -5.1540  -17.8203 C   0  0  0  0  0
   -3.5337   -4.2650  -17.2091 C   0  0  0  0  0
   -4.4686   -0.2379  -12.0042 N   0  0  0  0  0
   -3.4759   -1.1843  -15.4063 N   0  0  0  0  0
   -7.4986   -1.2159  -17.6639 S   0  0  0  0  0
   -7.4009   -4.8190  -19.9528 S   0  0  0  0  0
   -4.1162   -7.5763  -17.7729 S   0  0  0  0  0
   -1.6584   -3.7533  -18.7364 S   0  0  0  0  0
 20 47  1  0  0  0
 21 47  1  0  0  0
 21 22  1  0  0  0
 22 23  1  0  0  0
 23 24  1  0  0  0
 24 25  1  0  0  0
 25 26  1  0  0  0
 26 21  1  0  0  0
 27 20  1  0  0  0
 27 28  1  0  0  0
 27 48  1  0  0  0
 29 30  1  0  0  0
 31 32  1  0  0  0
 33 28  1  0  0  0
 34 48  1  0  0  0
 34 35  1  0  0  0
 36 37  1  0  0  0
 38 39  1  0  0  0
 40 35  1  0  0  0
 42 41  1  0  0  0
 42  3  1  0  0  0
 43  3  1  0  0  0
 43  4  1  0  0  0
 43 44  1  0  0  0
 44  8  1  0  0  0
 44 45  1  0  0  0
 45 12  1  0  0  0
 45 46  1  0  0  0
 46 16  1  0  0  0
 46 42  1  0  0  0
 48 41  1  0  0  0
 49  4  1  0  0  0
 49  7  1  0  0  0
 50  8  1  0  0  0
 50 11  1  0  0  0
 51 12  1  0  0  0
 51 15  1  0  0  0
 52 16  1  0  0  0
 52 19  1  0  0  0
 20  1  2  0  0  0
 28 29  2  0  0  0
 30 31  2  0  0  0
 32 33  2  0  0  0
 35 36  2  0  0  0
 37 38  2  0  0  0
 39 40  2  0  0  0
 41  2  2  0  0  0
 49  5  2  0  0  0
 49  6  2  0  0  0
 50  9  2  0  0  0
 50 10  2  0  0  0
 51 13  2  0  0  0
 51 14  2  0  0  0
 52 17  2  0  0  0
 52 18  2  0  0  0
M  END
> <rmsd>
0.662091255

$$$$
CHEMBL1092369 PubChem-46883758


 67 74  0  0  0  0  0  0  0  0999 V2000
   -3.0069    0.2731  -17.3805 N   0  0  0  0  0
   -3.4388   -5.2329  -25.4272 N   0  0  0  0  0
   -3.4437   -7.0125  -26.9846 N   0  0  0  0  0
   -2.5653   -6.7482  -29.2102 N   0  0  0  0  0
  -13.9695    4.3371  -16.3398 N   0  0  0  0  0
  -17.4182    5.4487  -14.1435 N   0  0  0  0  0
   -1.1975    0.9643  -18.5529 N   0  0  0  0  0
    0.2805    1.0795  -15.2132 N   0  0  0  0  0
   -1.9903    0.3652  -15.1892 N   0  0  0  0  0
    1.4236    1.6444  -17.2754 N   0  0  0  0  0
   -4.3486   -0.1940  -17.0551 C   0  0  0  0  0
   -5.3668    0.8730  -17.3715 C   0  0  0  0  0
   -6.5566    0.0954  -17.8364 C   0  0  0  0  0
   -5.9955   -1.2684  -18.1795 C   0  0  0  0  0
   -6.1005   -1.4993  -19.6751 C   0  0  0  0  0
   -5.3276   -4.7109  -22.3841 C   0  0  0  0  0
   -5.2239   -4.5801  -23.8727 C   0  0  0  0  0
   -3.7369   -4.6514  -24.1186 C   0  0  0  0  0
   -3.7433   -6.5312  -25.7490 C   0  0  0  0  0
   -2.8383   -6.2303  -27.9149 C   0  0  0  0  0
   -2.5199   -4.9095  -27.6104 C   0  0  0  0  0
   -2.8321   -4.4288  -26.3413 C   0  0  0  0  0
   -3.9457   -5.1747  -21.9537 C   0  0  0  0  0
   -4.0738   -6.4538  -21.1460 C   0  0  0  0  0
  -11.6780    1.2113  -16.9349 C   0  0  0  0  0
  -12.9427    1.4682  -16.1296 C   0  0  0  0  0
  -12.7370    2.5992  -15.1291 C   0  0  0  0  0
  -12.6595    3.9491  -15.8308 C   0  0  0  0  0
  -15.1197    4.7249  -15.5602 C   0  0  0  0  0
  -15.0289    5.1704  -14.2167 C   0  0  0  0  0
  -16.2134    5.5226  -13.5240 C   0  0  0  0  0
  -17.5357    5.0472  -15.4332 C   0  0  0  0  0
  -16.3873    4.6812  -16.1717 C   0  0  0  0  0
  -16.5356    4.2659  -17.5036 C   0  0  0  0  0
  -17.8019    4.2198  -18.0930 C   0  0  0  0  0
  -18.9317    4.5865  -17.3576 C   0  0  0  0  0
  -18.7989    4.9985  -16.0297 C   0  0  0  0  0
  -16.1503    5.9630  -12.1990 C   0  0  0  0  0
  -14.9183    6.0706  -11.5513 C   0  0  0  0  0
  -13.7380    5.7424  -12.2213 C   0  0  0  0  0
  -13.8012    5.2982  -13.5505 C   0  0  0  0  0
  -11.2736    5.5400  -12.1498 C   0  0  0  0  0
   -1.9976    0.5050  -16.5375 C   0  0  0  0  0
   -0.9179    0.9172  -17.2368 C   0  0  0  0  0
   -2.4982    0.5590  -18.6083 C   0  0  0  0  0
    0.2627    1.2154  -16.5721 C   0  0  0  0  0
   -0.8313    0.6600  -14.5253 C   0  0  0  0  0
   -4.6442   -1.3511  -17.7947 O   0  0  0  0  0
   -7.2511   -2.2354  -19.9670 O   0  0  0  0  0
   -5.9925   -4.4739  -19.4357 O   0  0  0  0  0
   -5.5960   -3.4559  -21.8295 O   0  0  0  0  0
   -4.2979   -7.2918  -24.9104 O   0  0  0  0  0
   -3.1505   -5.4047  -23.0907 O   0  0  0  0  0
   -2.8294   -6.8173  -20.6257 O   0  0  0  0  0
   -3.5313   -5.9573  -18.2422 O   0  0  0  0  0
   -1.6963   -7.8112  -18.3155 O   0  0  0  0  0
   -4.3347   -8.3679  -18.8789 O   0  0  0  0  0
   -8.0071   -4.6368  -21.0987 O   0  0  0  0  0
   -7.4733   -0.0297  -16.7900 O   0  0  0  0  0
   -8.7307    2.1315  -17.6090 O   0  0  0  0  0
   -9.3878   -0.1092  -18.8030 O   0  0  0  0  0
  -12.5195    5.8643  -11.5473 O   0  0  0  0  0
   -6.6887   -3.7256  -20.5543 P   0  0  0  0  0
   -3.1161   -7.1991  -18.9981 P   0  0  0  0  0
   -8.9192    0.6497  -17.3640 P   0  0  0  0  0
  -10.4293    0.3758  -15.9096 S   0  0  0  0  0
  -20.5158    4.5283  -18.1003 Cl  0  0  0  0  0
  1 43  1  0  0  0
  2 19  1  0  0  0
  5 29  1  0  0  0
 11  1  1  0  0  0
 11 12  1  0  0  0
 11 48  1  0  0  0
 12 13  1  0  0  0
 13 14  1  0  0  0
 13 59  1  0  0  0
 14 48  1  0  0  0
 14 15  1  0  0  0
 15 49  1  0  0  0
 16 51  1  0  0  0
 16 17  1  0  0  0
 17 18  1  0  0  0
 18  2  1  0  0  0
 18 53  1  0  0  0
 19  3  1  0  0  0
 20 21  1  0  0  0
 20  4  1  0  0  0
 22  2  1  0  0  0
 23 53  1  0  0  0
 23 24  1  0  0  0
 23 16  1  0  0  0
 24 54  1  0  0  0
 25 66  1  0  0  0
 25 26  1  0  0  0
 26 27  1  0  0  0
 27 28  1  0  0  0
 28  5  1  0  0  0
 30 31  1  0  0  0
 31 38  1  0  0  0
 32  6  1  0  0  0
 33 34  1  0  0  0
 33 29  1  0  0  0
 35 36  1  0  0  0
 36 67  1  0  0  0
 37 32  1  0  0  0
 39 40  1  0  0  0
 40 62  1  0  0  0
 41 30  1  0  0  0
 42 62  1  0  0  0
 43  9  1  0  0  0
 44  7  1  0  0  0
 44 46  1  0  0  0
 45  1  1  0  0  0
 46 10  1  0  0  0
 47  8  1  0  0  0
 63 49  1  0  0  0
 63 51  1  0  0  0
 63 58  1  0  0  0
 64 54  1  0  0  0
 64 56  1  0  0  0
 64 57  1  0  0  0
 65 59  1  0  0  0
 65 61  1  0  0  0
 65 66  1  0  0  0
 19 52  2  0  0  0
 20  3  2  0  0  0
 21 22  2  0  0  0
 29 30  2  0  0  0
 31  6  2  0  0  0
 32 33  2  0  0  0
 34 35  2  0  0  0
 36 37  2  0  0  0
 38 39  2  0  0  0
 40 41  2  0  0  0
 43 44  2  0  0  0
 45  7  2  0  0  0
 46  8  2  0  0  0
 47  9  2  0  0  0
 63 50  2  0  0  0
 64 55  2  0  0  0
 65 60  2  0  0  0
M  END
> <rmsd>
0.846131682

$$$$
CHEMBL196696 PubChem-11513414 PubChem-11513415


 44 46  0  0  0  0  0  0  0  0999 V2000
   -2.4362  -12.8379  -16.1666 C   0  0  0  0  0
   -3.1097  -10.5953  -16.1370 C   0  0  0  0  0
   -3.1444   -9.2779  -16.9089 C   0  0  0  0  0
   -1.8316   -7.6224  -18.0418 C   0  0  0  0  0
   -2.3459   -7.7996  -19.4786 C   0  0  0  0  0
   -3.8160   -7.5647  -19.5738 C   0  0  0  0  0
   -6.1737   -4.8027  -20.5916 C   0  0  0  0  0
   -7.6479   -4.6299  -20.7830 C   0  0  0  0  0
   -8.8058   -5.5280  -22.4432 C   0  0  0  0  0
   -9.8652   -5.0652  -23.3820 C   0  0  0  0  0
  -11.1441   -5.1480  -23.0309 C   0  0  0  0  0
   -8.2158   -3.4923  -19.9287 C   0  0  0  0  0
   -7.8500   -2.0983  -20.4617 C   0  0  0  0  0
   -7.9205   -1.0062  -19.3913 C   0  0  0  0  0
   -9.7152    0.2369  -18.9830 C   0  0  0  0  0
  -10.0260    0.9850  -17.7179 C   0  0  0  0  0
   -9.7753    0.4916  -16.5053 C   0  0  0  0  0
   -6.7886   -1.1008  -18.4198 C   0  0  0  0  0
   -4.7222   -0.0272  -17.4188 C   0  0  0  0  0
   -3.6903    0.9202  -17.8964 C   0  0  0  0  0
   -2.8741    0.7663  -19.0202 C   0  0  0  0  0
   -1.9560    1.7817  -19.3259 C   0  0  0  0  0
   -1.8718    2.9285  -18.5154 C   0  0  0  0  0
   -2.7033    3.0638  -17.3927 C   0  0  0  0  0
   -3.6031    2.0375  -17.1023 C   0  0  0  0  0
   -4.5585    2.0006  -15.9771 C   0  0  0  0  0
   -5.1440    0.5856  -16.0595 C   0  0  0  0  0
   -1.0855   -9.9168  -18.0068 C   0  0  0  0  0
   -1.0995  -11.2245  -17.2143 C   0  0  0  0  0
   -2.4800  -11.6225  -16.9613 N   0  0  0  0  0
   -1.7823   -8.8630  -17.2568 N   0  0  0  0  0
   -4.2999   -6.2949  -20.0061 N   0  0  0  0  0
   -5.6759   -6.0590  -20.1362 N   0  0  0  0  0
   -5.8277   -0.0458  -18.3718 N   0  0  0  0  0
   -4.6213   -8.5034  -19.3336 O   0  0  0  0  0
   -5.3780   -3.8613  -20.8607 O   0  0  0  0  0
   -7.9549   -4.4652  -22.1386 O   0  0  0  0  0
   -9.6008   -3.6328  -19.8118 O   0  0  0  0  0
   -8.6576   -1.7499  -21.5469 O   0  0  0  0  0
   -9.1483   -1.0153  -18.7201 O   0  0  0  0  0
   -6.6901   -2.0923  -17.6464 O   0  0  0  0  0
   -6.5298    0.6219  -15.8880 O   0  0  0  0  0
  -12.5024   -4.5577  -24.2330 Br  0  0  0  0  0
  -10.2011    1.5156  -14.9507 Br  0  0  0  0  0
  1 30  1  0  0  0
  2 30  1  0  0  0
  2  3  1  0  0  0
  3 31  1  0  0  0
  4 31  1  0  0  0
  4  5  1  0  0  0
  5  6  1  0  0  0
  6 32  1  0  0  0
  8  7  1  0  0  0
  8 37  1  0  0  0
  8 12  1  0  0  0
  9 37  1  0  0  0
  9 10  1  0  0  0
 11 43  1  0  0  0
 12 38  1  0  0  0
 12 13  1  0  0  0
 13 39  1  0  0  0
 13 14  1  0  0  0
 14 40  1  0  0  0
 14 18  1  0  0  0
 15 40  1  0  0  0
 15 16  1  0  0  0
 17 44  1  0  0  0
 18 34  1  0  0  0
 19 34  1  0  0  0
 19 20  1  0  0  0
 21 22  1  0  0  0
 23 24  1  0  0  0
 25 20  1  0  0  0
 26 25  1  0  0  0
 26 27  1  0  0  0
 27 42  1  0  0  0
 27 19  1  0  0  0
 28 31  1  0  0  0
 28 29  1  0  0  0
 29 30  1  0  0  0
 32 33  1  0  0  0
 33  7  1  0  0  0
  6 35  2  0  0  0
  7 36  2  0  0  0
 10 11  2  0  0  0
 16 17  2  0  0  0
 18 41  2  0  0  0
 20 21  2  0  0  0
 22 23  2  0  0  0
 24 25  2  0  0  0
M  END
> <rmsd>
0.799972475

$$$$
CHEMBL1553745


 54 62  0  0  0  0  0  0  0  0999 V2000
   -5.5825   -0.5957  -14.9038 O   0  0  0  0  0
   -9.3638    0.3211  -18.5946 O   0  0  0  0  0
   -7.8907    2.0733  -18.9130 O   0  0  0  0  0
   -2.3592   -3.4828  -14.8118 O   0  0  0  0  0
   -1.2630   -8.2390  -17.3728 O   0  0  0  0  0
   -5.0664   -7.9614  -20.0256 O   0  0  0  0  0
   -7.7135   -5.3268  -21.0593 O   0  0  0  0  0
   -8.7219   -3.0558  -17.1366 O   0  0  0  0  0
   -3.9801   -1.4562  -13.4586 O   0  0  0  0  0
   -5.8826   -0.8242  -16.2400 C   0  0  0  0  0
   -7.0646   -0.1876  -18.2814 C   0  0  0  0  0
   -8.1755    0.7406  -18.6157 C   0  0  0  0  0
   -8.9146    3.0071  -19.2207 C   0  0  0  0  0
   -4.9816   -1.9061  -16.8318 C   0  0  0  0  0
   -3.3151   -3.3814  -15.6267 C   0  0  0  0  0
   -3.6781   -4.4945  -16.5135 C   0  0  0  0  0
   -4.8538   -4.4550  -17.1755 C   0  0  0  0  0
   -5.7494   -3.2208  -17.1564 C   0  0  0  0  0
   -6.6591   -3.0990  -18.4089 C   0  0  0  0  0
   -6.2907   -3.9164  -19.6937 C   0  0  0  0  0
   -5.1630   -4.9464  -19.5278 C   0  0  0  0  0
   -5.2307   -5.5365  -18.1340 C   0  0  0  0  0
   -4.5772   -6.9153  -17.8875 C   0  0  0  0  0
   -3.2803   -6.9248  -17.0472 C   0  0  0  0  0
   -2.6458   -5.5325  -16.8506 C   0  0  0  0  0
   -1.8435   -5.0537  -18.0597 C   0  0  0  0  0
   -2.3897   -7.8688  -17.7980 C   0  0  0  0  0
   -4.2467   -7.7313  -19.0964 C   0  0  0  0  0
   -2.3219   -9.1605  -20.0195 C   0  0  0  0  0
   -2.9858   -9.4795  -21.2149 C   0  0  0  0  0
   -2.3836  -10.3059  -22.1678 C   0  0  0  0  0
   -1.1072  -10.8234  -21.9361 C   0  0  0  0  0
   -0.4340  -10.5136  -20.7526 C   0  0  0  0  0
   -1.0384   -9.6869  -19.8012 C   0  0  0  0  0
   -7.5659   -4.6250  -20.0230 C   0  0  0  0  0
   -8.0618   -3.5113  -18.1085 C   0  0  0  0  0
   -9.9213   -4.9989  -19.0686 C   0  0  0  0  0
  -10.8556   -4.6613  -18.0761 C   0  0  0  0  0
  -12.1340   -5.2265  -18.0765 C   0  0  0  0  0
  -12.4939   -6.1383  -19.0713 C   0  0  0  0  0
  -11.5754   -6.4839  -20.0644 C   0  0  0  0  0
  -10.2975   -5.9175  -20.0618 C   0  0  0  0  0
   -4.5034   -1.3976  -14.6022 C   0  0  0  0  0
   -4.1820   -1.4145  -18.0585 C   0  0  0  0  0
   -3.3900   -0.1648  -17.8220 C   0  0  0  0  0
   -2.2331   -0.1880  -17.0324 C   0  0  0  0  0
   -1.4926    0.9817  -16.8379 C   0  0  0  0  0
   -1.9013    2.1754  -17.4400 C   0  0  0  0  0
   -3.0474    2.1984  -18.2402 C   0  0  0  0  0
   -3.7878    1.0285  -18.4343 C   0  0  0  0  0
   -6.7715   -0.1063  -16.8602 N   0  0  0  0  0
   -4.0770   -2.1774  -15.7114 N   0  0  0  0  0
   -2.9444   -8.3053  -19.0368 N   0  0  0  0  0
   -8.5996   -4.4173  -19.0652 N   0  0  0  0  0
 10  1  1  0  0  0
 11 51  1  0  0  0
 11 12  1  0  0  0
 12  3  1  0  0  0
 13  3  1  0  0  0
 14 10  1  0  0  0
 14 52  1  0  0  0
 14 44  1  0  0  0
 15 16  1  0  0  0
 18 17  1  0  0  0
 18 19  1  0  0  0
 18 14  1  0  0  0
 19 20  1  0  0  0
 19 36  1  0  0  0
 20 21  1  0  0  0
 20 35  1  0  0  0
 22 21  1  0  0  0
 22 23  1  0  0  0
 22 17  1  0  0  0
 23 24  1  0  0  0
 23 28  1  0  0  0
 24 25  1  0  0  0
 24 27  1  0  0  0
 25 26  1  0  0  0
 25 16  1  0  0  0
 27 53  1  0  0  0
 30 31  1  0  0  0
 32 33  1  0  0  0
 34 29  1  0  0  0
 35 54  1  0  0  0
 38 39  1  0  0  0
 40 41  1  0  0  0
 42 37  1  0  0  0
 43  1  1  0  0  0
 44 45  1  0  0  0
 46 47  1  0  0  0
 48 49  1  0  0  0
 50 45  1  0  0  0
 52 15  1  0  0  0
 52 43  1  0  0  0
 53 28  1  0  0  0
 53 29  1  0  0  0
 54 36  1  0  0  0
 54 37  1  0  0  0
 10 51  2  0  0  0
 12  2  2  0  0  0
 15  4  2  0  0  0
 16 17  2  0  0  0
 27  5  2  0  0  0
 28  6  2  0  0  0
 29 30  2  0  0  0
 31 32  2  0  0  0
 33 34  2  0  0  0
 35  7  2  0  0  0
 36  8  2  0  0  0
 37 38  2  0  0  0
 39 40  2  0  0  0
 41 42  2  0  0  0
 43  9  2  0  0  0
 45 46  2  0  0  0
 47 48  2  0  0  0
 49 50  2  0  0  0
M  END
> <rmsd>
0.793480694

$$$$
CHEMBL437993 PubChem-136109042


109121  0  0  0  0  0  0  0  0999 V2000
   -6.2890   -5.7016  -19.5338 C   0  0  0  0  0
   -7.0506   -5.0368  -18.5770 C   0  0  0  0  0
   -7.0494   -5.8547  -17.4487 C   0  0  0  0  0
   -6.3129   -6.9712  -17.7804 C   0  0  0  0  0
   -6.1014   -8.0172  -16.8815 C   0  0  0  0  0
   -6.6650   -7.9026  -15.6011 C   0  0  0  0  0
   -7.4256   -6.7688  -15.2532 C   0  0  0  0  0
   -7.6308   -5.7243  -16.1763 C   0  0  0  0  0
   -8.5273   -4.5870  -15.7990 C   0  0  0  0  0
   -7.4384   -2.5332  -14.9665 C   0  0  0  0  0
   -7.4163   -1.9588  -16.3494 C   0  0  0  0  0
   -6.3167   -2.6242  -17.1691 C   0  0  0  0  0
   -4.8970   -2.1500  -16.8391 C   0  0  0  0  0
   -4.0232   -3.3368  -16.6143 C   0  0  0  0  0
   -2.9804   -5.2748  -17.0664 C   0  0  0  0  0
   -2.6419   -6.4814  -17.8511 C   0  0  0  0  0
   -2.5838   -5.5478  -20.2954 C   0  0  0  0  0
   -1.1877   -5.0249  -20.2890 C   0  0  0  0  0
    1.0110   -5.0766  -20.7498 C   0  0  0  0  0
    2.2232   -5.6495  -21.3579 C   0  0  0  0  0
    2.3241   -5.9030  -22.7479 C   0  0  0  0  0
    1.3288   -5.4263  -23.7307 C   0  0  0  0  0
   -0.2240   -4.0744  -24.6452 C   0  0  0  0  0
   -1.1119   -2.8943  -24.7129 C   0  0  0  0  0
    0.1152   -1.5858  -22.8861 C   0  0  0  0  0
   -0.3259   -0.9596  -21.5956 C   0  0  0  0  0
    0.5104    0.1463  -19.4266 C   0  0  0  0  0
    1.5853    0.4246  -18.6725 C   0  0  0  0  0
    2.5553    1.6539  -16.7521 C   0  0  0  0  0
    2.9360   -0.1043  -19.0576 C   0  0  0  0  0
   -0.8047    0.6948  -19.0535 C   0  0  0  0  0
   -2.9118    0.6934  -18.2801 C   0  0  0  0  0
   -4.1157    0.0754  -17.7199 C   0  0  0  0  0
   -2.7410    2.0778  -18.3645 C   0  0  0  0  0
    1.1602   -0.6977  -23.5703 C   0  0  0  0  0
    1.8596   -1.4278  -24.6971 C   0  0  0  0  0
   -0.1503   -5.0121  -25.6802 C   0  0  0  0  0
    3.4309   -6.6143  -23.2161 C   0  0  0  0  0
    4.4019   -7.0861  -22.3371 C   0  0  0  0  0
    4.2616   -6.8375  -20.9606 C   0  0  0  0  0
    5.1772   -7.4374  -19.9705 C   0  0  0  0  0
    6.5864   -8.9626  -19.0973 C   0  0  0  0  0
    7.4400  -10.1582  -19.1258 C   0  0  0  0  0
    8.4305  -12.0637  -20.4557 C   0  0  0  0  0
    7.4503  -13.1636  -20.7384 C   0  0  0  0  0
    9.4948  -11.9805  -21.5487 C   0  0  0  0  0
   10.8644  -13.2903  -22.9310 C   0  0  0  0  0
   11.7919  -14.5028  -23.0252 C   0  0  0  0  0
   13.7615  -15.5335  -22.1173 C   0  0  0  0  0
   13.0462  -16.8590  -21.8262 C   0  0  0  0  0
   13.2951  -19.1096  -22.3806 C   0  0  0  0  0
   14.3320  -18.2620  -20.4741 C   0  0  0  0  0
   12.3176  -14.2496  -20.6946 C   0  0  0  0  0
   11.3919  -13.0356  -20.6262 C   0  0  0  0  0
    6.3108   -8.2581  -17.9227 C   0  0  0  0  0
    1.0528   -4.1235  -19.7286 C   0  0  0  0  0
   -3.6788   -4.4965  -20.3448 C   0  0  0  0  0
   -5.9881   -5.2143  -20.8876 C   0  0  0  0  0
   -2.5999   -5.1422  -15.7271 C   0  0  0  0  0
   -7.6103   -3.6500  -18.6988 C   0  0  0  0  0
   -8.6583   -0.1060  -16.5393 C   0  0  0  0  0
   -8.7454    1.3988  -16.2150 C   0  0  0  0  0
   -9.7739    2.1000  -17.1124 C   0  0  0  0  0
   -9.4811    1.8308  -18.6298 C   0  0  0  0  0
   -8.7048    0.4863  -18.7565 C   0  0  0  0  0
   -8.6539   -0.1460  -20.1392 C   0  0  0  0  0
  -11.5275    3.0288  -19.1808 C   0  0  0  0  0
  -10.2353    2.1701  -20.8615 C   0  0  0  0  0
   -9.6869    3.5900  -16.8330 C   0  0  0  0  0
   -5.8726   -6.8873  -19.0443 N   0  0  0  0  0
   -3.7755   -4.2805  -17.5451 N   0  0  0  0  0
   -2.7897   -6.5743  -19.2755 N   0  0  0  0  0
   -0.2189   -5.5813  -21.0371 N   0  0  0  0  0
    0.5925   -4.3074  -23.5802 N   0  0  0  0  0
   -1.0260   -1.8167  -23.7735 N   0  0  0  0  0
    0.6674   -0.6643  -20.6038 N   0  0  0  0  0
   -1.8423   -0.0634  -18.6549 N   0  0  0  0  0
   -4.3245   -1.3271  -17.8941 N   0  0  0  0  0
    5.9584   -8.5101  -20.2180 N   0  0  0  0  0
    7.7265  -10.7914  -20.3734 N   0  0  0  0  0
    7.2672  -14.2116  -19.7906 N   0  0  0  0  0
   10.2951  -13.2001  -21.5837 N   0  0  0  0  0
   12.8765  -14.3672  -22.0463 N   0  0  0  0  0
   14.0023  -17.9536  -21.8546 N   0  0  0  0  0
    3.1880   -6.1242  -20.5213 N   0  0  0  0  0
  -10.6801    1.8845  -19.5038 N   0  0  0  0  0
   -5.2229   -7.8782  -19.7456 O   0  0  0  0  0
   -7.9532   -3.8152  -14.7479 O   0  0  0  0  0
   -6.9429   -1.8917  -14.0031 O   0  0  0  0  0
   -2.2587   -7.5088  -17.2320 O   0  0  0  0  0
   -1.9655   -2.8189  -25.6410 O   0  0  0  0  0
   -1.5450   -0.7155  -21.3899 O   0  0  0  0  0
    1.4437    1.2173  -17.5244 O   0  0  0  0  0
   -4.9291    0.7626  -17.0498 O   0  0  0  0  0
    0.5809    0.4794  -24.0515 O   0  0  0  0  0
    7.9057  -10.6290  -18.0535 O   0  0  0  0  0
    6.7710  -13.1564  -21.8015 O   0  0  0  0  0
    5.4903   -7.7868  -22.8430 O   0  0  0  0  0
   -4.6839   -4.8881  -21.2742 O   0  0  0  0  0
   -6.9273   -5.0563  -21.7097 O   0  0  0  0  0
   -6.6049   -2.6772  -18.5438 O   0  0  0  0  0
   -7.3388   -0.5605  -16.3769 O   0  0  0  0  0
   -9.1770   -0.4480  -17.8198 O   0  0  0  0  0
  -11.0450    1.6356  -16.7593 O   0  0  0  0  0
   -1.1814    2.3265  -18.9463 S   0  0  0  0  0
    0.9964   -6.1525  -25.2066 S   0  0  0  0  0
    5.2367   -7.0318  -18.3436 S   0  0  0  0  0
   -0.5408   -3.9032  -19.2196 S   0  0  0  0  0
   -3.2842   -3.7104  -15.1634 S   0  0  0  0  0
  2  3  1  0  0  0
  4 70  1  0  0  0
  4  5  1  0  0  0
  6  7  1  0  0  0
  8  3  1  0  0  0
  9  8  1  0  0  0
  9 88  1  0  0  0
 10 88  1  0  0  0
 11 10  1  0  0  0
 11 12  1  0  0  0
 11102  1  0  0  0
 12 13  1  0  0  0
 12101  1  0  0  0
 13 14  1  0  0  0
 13 78  1  0  0  0
 14109  1  0  0  0
 15 71  1  0  0  0
 15 16  1  0  0  0
 16 72  1  0  0  0
 17 72  1  0  0  0
 17 18  1  0  0  0
 17 57  1  0  0  0
 18108  1  0  0  0
 19 73  1  0  0  0
 19 20  1  0  0  0
 20 85  1  0  0  0
 21 22  1  0  0  0
 21 38  1  0  0  0
 22106  1  0  0  0
 23 74  1  0  0  0
 23 24  1  0  0  0
 24 75  1  0  0  0
 25 75  1  0  0  0
 25 26  1  0  0  0
 25 35  1  0  0  0
 26 76  1  0  0  0
 27 31  1  0  0  0
 28 93  1  0  0  0
 29 93  1  0  0  0
 30 28  1  0  0  0
 31105  1  0  0  0
 32 77  1  0  0  0
 32 33  1  0  0  0
 33 78  1  0  0  0
 34105  1  0  0  0
 35 95  1  0  0  0
 35 36  1  0  0  0
 37106  1  0  0  0
 39 40  1  0  0  0
 39 98  1  0  0  0
 40 41  1  0  0  0
 41107  1  0  0  0
 42 79  1  0  0  0
 42 43  1  0  0  0
 43 80  1  0  0  0
 44 80  1  0  0  0
 44 45  1  0  0  0
 44 46  1  0  0  0
 45 81  1  0  0  0
 46 82  1  0  0  0
 47 82  1  0  0  0
 47 48  1  0  0  0
 48 83  1  0  0  0
 49 83  1  0  0  0
 49 50  1  0  0  0
 50 84  1  0  0  0
 51 84  1  0  0  0
 52 84  1  0  0  0
 53 83  1  0  0  0
 53 54  1  0  0  0
 54 82  1  0  0  0
 55107  1  0  0  0
 56108  1  0  0  0
 57 99  1  0  0  0
 58 99  1  0  0  0
 58  1  1  0  0  0
 59109  1  0  0  0
 60101  1  0  0  0
 60  2  1  0  0  0
 61102  1  0  0  0
 61 62  1  0  0  0
 61103  1  0  0  0
 62 63  1  0  0  0
 63 64  1  0  0  0
 63104  1  0  0  0
 63 69  1  0  0  0
 64 65  1  0  0  0
 64 86  1  0  0  0
 65103  1  0  0  0
 65 66  1  0  0  0
 67 86  1  0  0  0
 68 86  1  0  0  0
 70 87  1  0  0  0
 70  1  1  0  0  0
 76 27  1  0  0  0
  1  2  2  0  0  0
  3  4  2  0  0  0
  5  6  2  0  0  0
  7  8  2  0  0  0
 10 89  2  0  0  0
 14 71  2  0  0  0
 15 59  2  0  0  0
 16 90  2  0  0  0
 18 73  2  0  0  0
 19 56  2  0  0  0
 20 21  2  0  0  0
 22 74  2  0  0  0
 23 37  2  0  0  0
 24 91  2  0  0  0
 26 92  2  0  0  0
 27 28  2  0  0  0
 31 77  2  0  0  0
 32 34  2  0  0  0
 33 94  2  0  0  0
 38 39  2  0  0  0
 40 85  2  0  0  0
 41 79  2  0  0  0
 42 55  2  0  0  0
 43 96  2  0  0  0
 45 97  2  0  0  0
 58100  2  0  0  0
M  END
> <rmsd>
0.691532314

$$$$
CHEMBL330554 PubChem-15173605


 46 49  0  0  0  0  0  0  0  0999 V2000
   -3.6465   -5.4769  -21.8380 C   0  0  0  0  0
   -4.4036   -6.7892  -21.9998 C   0  0  0  0  0
   -6.1877   -7.3833  -20.3433 C   0  0  0  0  0
   -5.9813   -6.5645  -19.1037 C   0  0  0  0  0
   -4.8396   -6.6110  -18.3679 C   0  0  0  0  0
   -3.7243   -7.5583  -18.6319 C   0  0  0  0  0
   -3.6208   -4.9087  -16.6231 C   0  0  0  0  0
   -4.6190   -3.8949  -16.1549 C   0  0  0  0  0
   -5.0433   -1.4223  -16.4329 C   0  0  0  0  0
   -4.7191   -0.1409  -17.0947 C   0  0  0  0  0
   -7.9368    1.5752  -17.1161 C   0  0  0  0  0
   -7.6737    2.6576  -16.0736 C   0  0  0  0  0
   -7.8445    2.2017  -18.5035 C   0  0  0  0  0
   -9.3031    0.9688  -16.9489 C   0  0  0  0  0
   -3.3324    0.1484  -17.5170 C   0  0  0  0  0
   -2.9830    1.3174  -18.2080 C   0  0  0  0  0
   -1.1287   -0.2128  -17.6863 C   0  0  0  0  0
   -5.6460   -4.7054  -16.7753 C   0  0  0  0  0
   -7.1293   -5.6731  -18.6888 C   0  0  0  0  0
   -6.7328   -5.8443  -22.2564 C   0  0  0  0  0
   -6.7577   -5.8152  -23.7340 C   0  0  0  0  0
   -6.1368   -6.8252  -24.4854 C   0  0  0  0  0
   -6.2115   -6.8256  -25.8800 C   0  0  0  0  0
   -6.9119   -5.8109  -26.5451 C   0  0  0  0  0
   -7.5334   -4.7924  -25.7995 C   0  0  0  0  0
   -8.2600   -3.7376  -26.4544 C   0  0  0  0  0
   -7.4621   -4.8051  -24.4005 C   0  0  0  0  0
   -5.7765   -6.6409  -21.5327 N   0  0  0  0  0
   -4.7011   -5.6461  -17.3183 N   0  0  0  0  0
   -4.3891   -2.6273  -16.8408 N   0  0  0  0  0
   -5.6362    0.7601  -17.2889 N   0  0  0  0  0
    0.1162   -0.8785  -17.4965 N   0  0  0  0  0
   -2.2986   -0.6927  -17.2269 N   0  0  0  0  0
   -8.8475   -2.8911  -26.9807 N   0  0  0  0  0
   -3.8586   -8.5253  -19.4280 O   0  0  0  0  0
   -2.5218   -7.4241  -17.9492 O   0  0  0  0  0
   -2.3754   -5.0486  -16.4987 O   0  0  0  0  0
   -5.9000   -1.4544  -15.5073 O   0  0  0  0  0
   -6.9645    0.5440  -16.9781 O   0  0  0  0  0
  -10.1178    1.4164  -16.0931 O   0  0  0  0  0
   -9.6810   -0.0998  -17.7524 O   0  0  0  0  0
   -7.5846   -5.1688  -21.6187 O   0  0  0  0  0
   -5.5972   -7.8432  -26.5979 O   0  0  0  0  0
   -6.9975   -5.8260  -27.9404 O   0  0  0  0  0
   -1.3151    1.2638  -18.4531 S   0  0  0  0  0
   -6.5895   -3.9986  -18.1743 S   0  0  0  0  0
  1  2  1  0  0  0
  2 28  1  0  0  0
  3 28  1  0  0  0
  3  4  1  0  0  0
  5  6  1  0  0  0
  5 29  1  0  0  0
  6 36  1  0  0  0
  8  7  1  0  0  0
  8 30  1  0  0  0
  8 18  1  0  0  0
  9 10  1  0  0  0
 10 15  1  0  0  0
 11 39  1  0  0  0
 11 12  1  0  0  0
 11 13  1  0  0  0
 11 14  1  0  0  0
 14 41  1  0  0  0
 15 33  1  0  0  0
 16 45  1  0  0  0
 17 45  1  0  0  0
 17 32  1  0  0  0
 18 46  1  0  0  0
 18 29  1  0  0  0
 19 46  1  0  0  0
 19  4  1  0  0  0
 20 21  1  0  0  0
 22 23  1  0  0  0
 23 43  1  0  0  0
 24 44  1  0  0  0
 24 25  1  0  0  0
 25 26  1  0  0  0
 27 21  1  0  0  0
 28 20  1  0  0  0
 29  7  1  0  0  0
 30  9  1  0  0  0
 31 39  1  0  0  0
  4  5  2  0  0  0
  6 35  2  0  0  0
  7 37  2  0  0  0
  9 38  2  0  0  0
 10 31  2  0  0  0
 14 40  2  0  0  0
 15 16  2  0  0  0
 17 33  2  0  0  0
 20 42  2  0  0  0
 21 22  2  0  0  0
 23 24  2  0  0  0
 25 27  2  0  0  0
 26 34  3  0  0  0
M  END
> <rmsd>
0.836208642

$$$$
CHEMBL387520 PubChem-44422899


 37 39  0  0  0  0  0  0  0  0999 V2000
   -4.9343   -7.4038  -16.1377 O   0  0  0  0  0
   -4.1848   -5.7713  -17.5607 O   0  0  0  0  0
   -4.9531   -8.2583  -19.2847 O   0  0  0  0  0
   -5.5871   -7.1271  -21.1886 O   0  0  0  0  0
   -6.8110   -5.5335  -19.5105 O   0  0  0  0  0
   -4.7889   -4.5015  -20.8271 O   0  0  0  0  0
   -7.1957   -5.0852  -22.0923 O   0  0  0  0  0
   -8.6631   -3.0568  -22.8286 O   0  0  0  0  0
   -8.9347   -3.8102  -20.3464 O   0  0  0  0  0
   -6.6608   -2.4759  -21.2456 O   0  0  0  0  0
   -5.5930   -0.9471  -19.0988 O   0  0  0  0  0
   -0.8983    2.9037  -18.1104 O   0  0  0  0  0
   -7.0745    1.0458  -16.6154 O   0  0  0  0  0
   -8.6994   -0.6131  -17.7294 O   0  0  0  0  0
   -3.6836   -8.8380  -22.0072 O   0  0  0  0  0
   -1.0302   -8.3901  -20.4476 O   0  0  0  0  0
   -1.7827   -8.8797  -17.7298 O   0  0  0  0  0
   -4.4038   -7.1057  -17.2393 C   0  0  0  0  0
   -4.0358   -8.1891  -18.2029 C   0  0  0  0  0
   -4.5390   -7.3682  -20.2948 C   0  0  0  0  0
   -7.3225   -1.3696  -20.7072 C   0  0  0  0  0
   -6.9670   -1.2185  -19.2382 C   0  0  0  0  0
   -5.4930   -0.0665  -18.0108 C   0  0  0  0  0
   -3.4299    0.6711  -17.0406 C   0  0  0  0  0
   -2.2479    1.4057  -17.0148 C   0  0  0  0  0
   -1.9565    2.2237  -18.0999 C   0  0  0  0  0
   -3.9670    1.5668  -19.1671 C   0  0  0  0  0
   -6.7433    0.7779  -17.9465 C   0  0  0  0  0
   -7.7742   -0.0849  -18.6343 C   0  0  0  0  0
   -3.3051   -7.9210  -21.0239 C   0  0  0  0  0
   -2.3486   -8.6094  -20.0445 C   0  0  0  0  0
   -2.5488   -8.1154  -18.6108 C   0  0  0  0  0
   -6.1194   -5.5497  -20.8567 P   0  0  0  0  0
   -7.8777   -3.5893  -21.6513 P   0  0  0  0  0
   -4.2805    0.7524  -18.1005 N   0  0  0  0  0
   -2.8148    2.2883  -19.1486 N   0  0  0  0  0
   -4.9382    1.7024  -20.4856 S   0  0  0  0  0
 18  2  1  0  0  0
 19 18  1  0  0  0
 19  3  1  0  0  0
 20  3  1  0  0  0
 20  4  1  0  0  0
 20 30  1  0  0  0
 21 10  1  0  0  0
 22 21  1  0  0  0
 22 11  1  0  0  0
 23 11  1  0  0  0
 23 35  1  0  0  0
 23 28  1  0  0  0
 25 26  1  0  0  0
 26 36  1  0  0  0
 27 35  1  0  0  0
 28 13  1  0  0  0
 28 29  1  0  0  0
 29 14  1  0  0  0
 29 22  1  0  0  0
 30 15  1  0  0  0
 30 31  1  0  0  0
 31 16  1  0  0  0
 31 32  1  0  0  0
 32 17  1  0  0  0
 32 19  1  0  0  0
 33  4  1  0  0  0
 33  6  1  0  0  0
 33  7  1  0  0  0
 34  7  1  0  0  0
 34  9  1  0  0  0
 34 10  1  0  0  0
 35 24  1  0  0  0
 36 27  1  0  0  0
 18  1  2  0  0  0
 24 25  2  0  0  0
 26 12  2  0  0  0
 27 37  2  0  0  0
 33  5  2  0  0  0
 34  8  2  0  0  0
M  END
> <rmsd>
0.757116497

$$$$
CHEMBL2059660 PubChem-70690599


 91102  0  0  0  0  0  0  0  0999 V2000
    2.1192   -6.2873  -20.8596 P   0  0  0  0  0
   -1.4114  -12.9289  -24.0945 P   0  0  0  0  0
   -6.7022   -4.3218  -22.4024 P   0  0  0  0  0
   -6.7256    2.3357  -16.3751 P   0  0  0  0  0
    1.8469   -5.7905  -19.4552 O   0  0  0  0  0
    3.7868   -6.1933  -21.1700 O   0  0  0  0  0
    1.6013   -7.9021  -20.9936 O   0  0  0  0  0
   -0.9890  -11.3186  -23.7680 O   0  0  0  0  0
   -0.8786  -13.8290  -23.0004 O   0  0  0  0  0
   -3.0979  -13.0498  -24.1410 O   0  0  0  0  0
   -0.7880  -13.4072  -25.5912 O   0  0  0  0  0
    2.3774  -10.5167  -22.7234 O   0  0  0  0  0
   -0.5923   -8.7418  -22.1020 O   0  0  0  0  0
   -0.1334   -5.3612  -21.8732 O   0  0  0  0  0
   -2.3586   -3.8466  -21.1176 O   0  0  0  0  0
   -5.1660   -4.4904  -23.1172 O   0  0  0  0  0
   -7.5048   -5.5773  -22.6643 O   0  0  0  0  0
   -7.4840   -3.0149  -23.1306 O   0  0  0  0  0
   -5.8894   -2.9092  -20.3054 O   0  0  0  0  0
   -8.5162   -0.6139  -18.1241 O   0  0  0  0  0
   -6.6869    0.6834  -15.9810 O   0  0  0  0  0
   -5.3258    2.8177  -16.7016 O   0  0  0  0  0
   -7.7370    2.5684  -17.7208 O   0  0  0  0  0
   -5.5757    3.6716  -20.0093 O   0  0  0  0  0
   -5.8914    5.5085  -21.7759 O   0  0  0  0  0
   -8.5409    5.4737  -19.5646 O   0  0  0  0  0
   -7.3158    3.2043  -15.0485 O   0  0  0  0  0
   -5.2513   -1.9856  -17.7817 O   0  0  0  0  0
   -2.5839   -6.4487  -22.6504 O   0  0  0  0  0
    1.7416   -8.2292  -22.3496 C   0  0  0  0  0
    0.5533   -8.9935  -22.8558 C   0  0  0  0  0
    0.9711  -10.4379  -22.7135 C   0  0  0  0  0
    0.4054  -11.2744  -23.8451 C   0  0  0  0  0
    2.8861   -9.2138  -22.5351 C   0  0  0  0  0
    3.6128   -7.7937  -24.5249 C   0  0  0  0  0
    5.3508   -8.8309  -25.1601 C   0  0  0  0  0
    6.4973   -9.3164  -25.7759 C   0  0  0  0  0
    6.5293  -11.0787  -24.1708 C   0  0  0  0  0
    4.8401   -9.4731  -24.0891 C   0  0  0  0  0
    1.2426   -5.2291  -22.0485 C   0  0  0  0  0
   -0.6790   -5.0011  -23.1055 C   0  0  0  0  0
   -2.1977   -5.1804  -23.1120 C   0  0  0  0  0
   -2.9670   -4.1256  -22.3456 C   0  0  0  0  0
   -4.2669   -4.8254  -22.1005 C   0  0  0  0  0
   -6.6662   -4.0334  -20.6029 C   0  0  0  0  0
   -6.7616   -2.0243  -19.6627 C   0  0  0  0  0
   -6.6081   -2.1333  -18.1380 C   0  0  0  0  0
   -7.4164   -1.0798  -17.3965 C   0  0  0  0  0
   -6.4229    0.0108  -17.1790 C   0  0  0  0  0
   -7.9304    3.9476  -17.8236 C   0  0  0  0  0
   -7.7309    4.3709  -19.2657 C   0  0  0  0  0
   -6.2947    4.7674  -19.5172 C   0  0  0  0  0
   -6.4140    5.8794  -20.5365 C   0  0  0  0  0
   -7.9125    6.0969  -20.6572 C   0  0  0  0  0
   -8.9048    8.2676  -19.7875 C   0  0  0  0  0
   -8.4875    9.5898  -21.3967 C   0  0  0  0  0
   -8.3653   10.6387  -22.2977 C   0  0  0  0  0
   -7.2283    9.1417  -23.7737 C   0  0  0  0  0
   -7.9788    8.3767  -21.7040 C   0  0  0  0  0
   -5.1346   -0.7715  -17.0717 C   0  0  0  0  0
   -3.8150    0.4485  -18.8558 C   0  0  0  0  0
   -2.1476    1.1355  -17.7281 C   0  0  0  0  0
   -0.9929    1.7160  -17.2316 C   0  0  0  0  0
   -1.5668    0.8628  -15.0794 C   0  0  0  0  0
   -2.9576    0.4424  -16.9025 C   0  0  0  0  0
   -3.9136   -6.3018  -22.2019 C   0  0  0  0  0
   -5.2955   -7.3278  -20.3767 C   0  0  0  0  0
   -3.8626   -7.6583  -18.8435 C   0  0  0  0  0
   -3.1556   -7.9177  -17.6760 C   0  0  0  0  0
   -1.1844   -7.1374  -18.7730 C   0  0  0  0  0
   -3.2197   -7.1446  -19.9158 C   0  0  0  0  0
    3.7375   -8.8449  -23.6707 N   0  0  0  0  0
    4.5943   -7.7621  -25.4702 N   0  0  0  0  0
    7.0532   -8.6802  -26.9171 N   0  0  0  0  0
    7.0690  -10.4439  -25.2604 N   0  0  0  0  0
    5.4020  -10.5909  -23.5711 N   0  0  0  0  0
   -8.2275    7.5262  -20.7032 N   0  0  0  0  0
   -9.0819    9.5580  -20.1884 N   0  0  0  0  0
   -8.8943   11.9302  -22.0118 N   0  0  0  0  0
   -7.7311   10.3869  -23.4821 N   0  0  0  0  0
   -7.3536    8.1163  -22.8789 N   0  0  0  0  0
   -4.0161    0.0057  -17.5869 N   0  0  0  0  0
   -2.6570    1.1623  -18.9765 N   0  0  0  0  0
   -0.1180    2.4564  -18.0720 N   0  0  0  0  0
   -0.7258    1.5715  -15.8998 N   0  0  0  0  0
   -2.7017    0.2885  -15.5818 N   0  0  0  0  0
   -4.1009   -6.9411  -20.9022 N   0  0  0  0  0
   -5.1814   -7.7882  -19.0983 N   0  0  0  0  0
   -3.8029   -8.4313  -16.5149 N   0  0  0  0  0
   -1.8158   -7.6479  -17.6666 N   0  0  0  0  0
   -1.8886   -6.8797  -19.9145 N   0  0  0  0  0
  1  6  1  0  0  0
  1  7  1  0  0  0
  1 40  1  0  0  0
  2  8  1  0  0  0
  2 10  1  0  0  0
  2 11  1  0  0  0
  3 16  1  0  0  0
  3 18  1  0  0  0
  3 45  1  0  0  0
  4 21  1  0  0  0
  4 23  1  0  0  0
  4 27  1  0  0  0
 30  7  1  0  0  0
 30 31  1  0  0  0
 31 32  1  0  0  0
 31 13  1  0  0  0
 32 33  1  0  0  0
 32 12  1  0  0  0
 33  8  1  0  0  0
 34 12  1  0  0  0
 34 72  1  0  0  0
 34 30  1  0  0  0
 36 73  1  0  0  0
 37 74  1  0  0  0
 37 75  1  0  0  0
 38 76  1  0  0  0
 39 72  1  0  0  0
 39 36  1  0  0  0
 40 14  1  0  0  0
 41 14  1  0  0  0
 42 41  1  0  0  0
 42 43  1  0  0  0
 42 29  1  0  0  0
 43 15  1  0  0  0
 43 44  1  0  0  0
 44 16  1  0  0  0
 44 66  1  0  0  0
 45 19  1  0  0  0
 46 19  1  0  0  0
 47 46  1  0  0  0
 47 48  1  0  0  0
 47 28  1  0  0  0
 48 20  1  0  0  0
 48 49  1  0  0  0
 49 21  1  0  0  0
 49 60  1  0  0  0
 50 23  1  0  0  0
 51 50  1  0  0  0
 51 52  1  0  0  0
 51 26  1  0  0  0
 52 24  1  0  0  0
 52 53  1  0  0  0
 53 25  1  0  0  0
 53 54  1  0  0  0
 54 26  1  0  0  0
 54 77  1  0  0  0
 56 78  1  0  0  0
 57 79  1  0  0  0
 57 80  1  0  0  0
 58 81  1  0  0  0
 59 77  1  0  0  0
 59 56  1  0  0  0
 60 28  1  0  0  0
 60 82  1  0  0  0
 62 83  1  0  0  0
 63 84  1  0  0  0
 63 85  1  0  0  0
 64 86  1  0  0  0
 65 82  1  0  0  0
 65 62  1  0  0  0
 66 29  1  0  0  0
 66 87  1  0  0  0
 68 88  1  0  0  0
 69 89  1  0  0  0
 69 90  1  0  0  0
 70 91  1  0  0  0
 71 87  1  0  0  0
 71 68  1  0  0  0
 72 35  1  0  0  0
 77 55  1  0  0  0
 82 61  1  0  0  0
 87 67  1  0  0  0
  1  5  2  0  0  0
  2  9  2  0  0  0
  3 17  2  0  0  0
  4 22  2  0  0  0
 35 73  2  0  0  0
 36 37  2  0  0  0
 38 75  2  0  0  0
 39 76  2  0  0  0
 55 78  2  0  0  0
 56 57  2  0  0  0
 58 80  2  0  0  0
 59 81  2  0  0  0
 61 83  2  0  0  0
 62 63  2  0  0  0
 64 85  2  0  0  0
 65 86  2  0  0  0
 67 88  2  0  0  0
 68 69  2  0  0  0
 70 90  2  0  0  0
 71 91  2  0  0  0
M  END
> <rmsd>
0.766511202

$$$$
CHEMBL2387411 PubChem-68207860 PubChem-71237759


 42 44  0  0  0  0  0  0  0  0999 V2000
   -9.3025    3.1569  -14.3060 C   0  0  0  0  0
   -8.0928    4.0644  -14.4304 C   0  0  0  0  0
   -7.1653    3.5652  -15.5246 C   0  0  0  0  0
   -6.4020    2.3307  -15.0490 C   0  0  0  0  0
   -5.4523    1.7511  -16.1083 C   0  0  0  0  0
   -4.4133    2.8151  -16.4940 C   0  0  0  0  0
   -3.5284    3.2284  -15.3252 C   0  0  0  0  0
   -6.2508    1.3907  -17.3720 C   0  0  0  0  0
   -6.3912   -1.5319  -17.1147 C   0  0  0  0  0
   -7.0735   -2.7152  -17.4167 C   0  0  0  0  0
   -6.4278   -3.9536  -17.3720 C   0  0  0  0  0
   -7.1931   -5.1905  -17.7198 C   0  0  0  0  0
   -6.6537   -5.4951  -20.1863 C   0  0  0  0  0
   -5.2806   -6.0034  -19.9014 C   0  0  0  0  0
   -3.9574   -7.9048  -19.5447 C   0  0  0  0  0
   -3.8936   -8.8449  -18.3480 C   0  0  0  0  0
   -2.4814   -9.1642  -17.9817 C   0  0  0  0  0
   -3.5036   -8.6299  -20.8093 C   0  0  0  0  0
   -3.1799   -7.6601  -21.8954 C   0  0  0  0  0
   -5.0763   -4.0224  -17.0036 C   0  0  0  0  0
   -3.0715   -5.4083  -16.5732 C   0  0  0  0  0
   -4.3887   -2.8376  -16.7013 C   0  0  0  0  0
   -5.0274   -1.5940  -16.7493 C   0  0  0  0  0
   -4.1802   -0.3909  -16.4407 C   0  0  0  0  0
   -3.3171    0.1522  -17.5479 C   0  0  0  0  0
   -3.7581    0.1583  -18.8802 C   0  0  0  0  0
   -2.9350    0.6625  -19.8914 C   0  0  0  0  0
   -1.6667    1.1589  -19.5773 C   0  0  0  0  0
   -1.2198    1.1482  -18.2527 C   0  0  0  0  0
   -2.0426    0.6442  -17.2412 C   0  0  0  0  0
   -7.3117   -0.0323  -17.1749 S   0  0  0  0  0
   -8.1348    0.0956  -15.9248 O   0  0  0  0  0
   -8.2297   -0.0764  -18.3634 O   0  0  0  0  0
   -7.0325   -5.3847  -21.3813 O   0  0  0  0  0
   -2.0837  -10.3573  -18.0032 O   0  0  0  0  0
   -1.6088   -8.1521  -17.6031 O   0  0  0  0  0
   -2.2290   -6.8469  -21.7570 O   0  0  0  0  0
   -3.9198   -7.6665  -23.0706 O   0  0  0  0  0
   -4.4354   -5.2649  -16.9432 O   0  0  0  0  0
   -7.5636   -5.1777  -19.1295 N   0  0  0  0  0
   -5.3280   -7.4437  -19.7090 N   0  0  0  0  0
   -4.7815    0.5798  -15.5093 N   0  0  0  0  0
  1  2  1  0  0  0
  2  3  1  0  0  0
  3  4  1  0  0  0
  5  4  1  0  0  0
  5  6  1  0  0  0
  5  8  1  0  0  0
  5 42  1  0  0  0
  6  7  1  0  0  0
  8 31  1  0  0  0
 10 11  1  0  0  0
 12 11  1  0  0  0
 12 40  1  0  0  0
 14 13  1  0  0  0
 14 41  1  0  0  0
 15 41  1  0  0  0
 15 16  1  0  0  0
 15 18  1  0  0  0
 16 17  1  0  0  0
 17 36  1  0  0  0
 18 19  1  0  0  0
 19 38  1  0  0  0
 20 39  1  0  0  0
 20 22  1  0  0  0
 21 39  1  0  0  0
 23  9  1  0  0  0
 24 23  1  0  0  0
 24 25  1  0  0  0
 24 42  1  0  0  0
 26 27  1  0  0  0
 28 29  1  0  0  0
 30 25  1  0  0  0
 31  9  1  0  0  0
 40 13  1  0  0  0
  9 10  2  0  0  0
 11 20  2  0  0  0
 13 34  2  0  0  0
 17 35  2  0  0  0
 19 37  2  0  0  0
 22 23  2  0  0  0
 25 26  2  0  0  0
 27 28  2  0  0  0
 29 30  2  0  0  0
 31 32  2  0  0  0
 31 33  2  0  0  0
M  END
> <rmsd>
0.808409035

$$$$
CHEMBL1683750 PubChem-16747704


 43 47  0  0  0  0  0  0  0  0999 V2000
   -6.8614   -1.1048  -17.9264 C   0  0  0  0  0
   -8.2347   -1.1037  -18.5498 C   0  0  0  0  0
   -8.0024   -0.5350  -19.9367 C   0  0  0  0  0
   -6.0404   -0.2760  -18.8839 C   0  0  0  0  0
   -4.2196   -1.9707  -19.3480 C   0  0  0  0  0
   -2.4888   -0.9021  -18.7409 C   0  0  0  0  0
   -3.5630   -0.1060  -18.5540 C   0  0  0  0  0
   -2.2245    1.6109  -17.7189 C   0  0  0  0  0
   -1.2226   -0.4429  -18.4092 C   0  0  0  0  0
   -8.6110   -1.4322  -21.0066 C   0  0  0  0  0
  -10.3886   -4.1293  -21.6343 C   0  0  0  0  0
   -9.6585   -7.1831  -20.7712 C   0  0  0  0  0
   -8.6754   -8.3479  -20.7631 C   0  0  0  0  0
   -8.6480   -9.0307  -19.4108 C   0  0  0  0  0
   -7.2925   -8.6665  -18.8724 C   0  0  0  0  0
   -6.4991   -8.3399  -20.1127 C   0  0  0  0  0
   -5.4715   -7.2930  -19.8111 C   0  0  0  0  0
   -3.6355   -6.3921  -18.8764 C   0  0  0  0  0
   -4.0256   -5.2885  -19.6377 C   0  0  0  0  0
   -2.4416   -6.3765  -18.0204 C   0  0  0  0  0
   -6.6234   -0.3638  -20.1581 O   0  0  0  0  0
   -8.8733   -2.9662  -23.5182 O   0  0  0  0  0
   -7.9655   -4.9631  -22.4443 O   0  0  0  0  0
  -11.7160   -5.3248  -19.6329 O   0  0  0  0  0
   -9.9548   -3.7499  -19.0069 O   0  0  0  0  0
   -7.3846   -7.9029  -21.1169 O   0  0  0  0  0
   -2.1065   -7.4100  -17.3849 O   0  0  0  0  0
   -6.7018   -9.7231  -18.1742 O   0  0  0  0  0
   -8.7616  -10.4107  -19.6026 O   0  0  0  0  0
   -9.1206   -0.2734  -17.8577 O   0  0  0  0  0
   -6.8522   -0.5245  -16.6545 O   0  0  0  0  0
   -4.6665   -0.7589  -18.9263 N   0  0  0  0  0
   -2.8656   -2.0925  -19.2442 N   0  0  0  0  0
   -3.4691    1.1477  -18.0469 N   0  0  0  0  0
   -1.1164    0.8208  -17.8995 N   0  0  0  0  0
   -0.0682   -1.2567  -18.5847 N   0  0  0  0  0
   -7.9271   -2.7172  -21.0582 N   0  0  0  0  0
   -9.2041   -6.1188  -19.8869 N   0  0  0  0  0
   -4.4311   -7.4936  -18.9759 N   0  0  0  0  0
   -1.6535   -5.1960  -17.9032 N   0  0  0  0  0
   -8.7537   -3.7059  -22.2151 S   0  0  0  0  0
  -10.3450   -4.8198  -19.9867 S   0  0  0  0  0
   -5.4268   -5.7413  -20.4524 S   0  0  0  0  0
  1  2  1  0  0  0
  1 31  1  0  0  0
  2  3  1  0  0  0
  2 30  1  0  0  0
  3 21  1  0  0  0
  3 10  1  0  0  0
  4 21  1  0  0  0
  4 32  1  0  0  0
  4  1  1  0  0  0
  6 33  1  0  0  0
  7 34  1  0  0  0
  7 32  1  0  0  0
  8 35  1  0  0  0
  9 36  1  0  0  0
  9  6  1  0  0  0
 10 37  1  0  0  0
 11 42  1  0  0  0
 12 38  1  0  0  0
 13 12  1  0  0  0
 13 14  1  0  0  0
 13 26  1  0  0  0
 14 15  1  0  0  0
 14 29  1  0  0  0
 15 16  1  0  0  0
 15 28  1  0  0  0
 16 26  1  0  0  0
 16 17  1  0  0  0
 17 43  1  0  0  0
 18 39  1  0  0  0
 18 20  1  0  0  0
 19 43  1  0  0  0
 20 40  1  0  0  0
 32  5  1  0  0  0
 41 37  1  0  0  0
 41 11  1  0  0  0
 42 38  1  0  0  0
  5 33  2  0  0  0
  6  7  2  0  0  0
  8 34  2  0  0  0
  9 35  2  0  0  0
 17 39  2  0  0  0
 18 19  2  0  0  0
 20 27  2  0  0  0
 41 22  2  0  0  0
 41 23  2  0  0  0
 42 24  2  0  0  0
 42 25  2  0  0  0
M  END
> <rmsd>
0.754732311

$$$$
CHEMBL4171488


 57 66  0  0  0  0  0  0  0  0999 V2000
   -6.9360   -2.2550  -18.6148 O   0  0  0  0  0
   -4.8947   -5.1560  -18.0951 O   0  0  0  0  0
   -6.3563   -1.6190  -21.2336 O   0  0  0  0  0
   -7.8468   -4.7770  -22.0254 O   0  0  0  0  0
   -9.2042   -7.2701  -21.6522 O   0  0  0  0  0
   -5.7941   -3.0498  -18.7195 C   0  0  0  0  0
   -5.9798   -4.3030  -17.8940 C   0  0  0  0  0
   -5.2585   -6.3431  -17.4571 C   0  0  0  0  0
   -5.3192   -7.4814  -18.4679 C   0  0  0  0  0
   -7.4041   -2.5021  -21.4976 C   0  0  0  0  0
   -6.8385   -3.8149  -21.9986 C   0  0  0  0  0
   -7.3427   -5.8320  -21.2614 C   0  0  0  0  0
   -8.4856   -6.6202  -20.6479 C   0  0  0  0  0
   -8.9761    0.4247  -20.9861 C   0  0  0  0  0
   -7.0991    0.9074  -22.4912 C   0  0  0  0  0
   -4.9707    0.8816  -22.1374 C   0  0  0  0  0
   -4.1514    0.5301  -19.9237 C   0  0  0  0  0
   -3.0610    0.9022  -19.1772 C   0  0  0  0  0
   -1.8125    1.3868  -19.5702 C   0  0  0  0  0
   -0.8489    1.5950  -18.5665 C   0  0  0  0  0
   -1.1452    1.2948  -17.2199 C   0  0  0  0  0
   -2.4075    0.7843  -16.8672 C   0  0  0  0  0
   -3.3456    0.6161  -17.8874 C   0  0  0  0  0
   -4.6061    0.0717  -17.8612 C   0  0  0  0  0
   -6.2520   -0.5203  -16.2315 C   0  0  0  0  0
   -8.3375   -0.5145  -16.7835 C   0  0  0  0  0
   -9.4230   -0.1078  -18.9430 C   0  0  0  0  0
  -10.6186    0.1448  -19.5677 C   0  0  0  0  0
  -11.9279    0.1147  -19.0787 C   0  0  0  0  0
  -12.9660    0.4405  -19.9692 C   0  0  0  0  0
  -12.6738    0.7873  -21.3049 C   0  0  0  0  0
  -11.3423    0.8110  -21.7558 C   0  0  0  0  0
  -10.3400    0.4783  -20.8403 C   0  0  0  0  0
   -8.1744   -1.5796  -15.8012 C   0  0  0  0  0
   -6.8605   -1.5624  -15.4264 C   0  0  0  0  0
   -6.3105   -2.5536  -14.6171 C   0  0  0  0  0
   -7.1762   -3.5522  -14.1352 C   0  0  0  0  0
   -8.5377   -3.5617  -14.5083 C   0  0  0  0  0
   -9.0491   -2.5750  -15.3702 C   0  0  0  0  0
   -5.1366    0.3791  -23.4877 C   0  0  0  0  0
   -6.4864    0.3679  -23.6992 C   0  0  0  0  0
   -7.0479   -0.2091  -24.8359 C   0  0  0  0  0
   -6.1697   -0.7672  -25.7823 C   0  0  0  0  0
   -4.7757   -0.7682  -25.5554 C   0  0  0  0  0
   -4.2429   -0.2085  -24.3804 C   0  0  0  0  0
   -4.0038   -7.7431  -19.0331 N   0  0  0  0  0
   -3.0928   -8.1826  -18.3303 N   0  0  0  0  0
   -2.1817   -8.6213  -17.6288 N   0  0  0  0  0
   -8.3339    0.0198  -19.8110 N   0  0  0  0  0
   -8.4552    0.7228  -22.1454 N   0  0  0  0  0
   -6.2285    1.2905  -21.6267 N   0  0  0  0  0
   -4.0559    0.4378  -21.3495 N   0  0  0  0  0
   -5.0593   -0.6314  -16.6988 N   0  0  0  0  0
   -7.2565    0.1570  -16.9668 N   0  0  0  0  0
   -9.4278   -0.4198  -17.6754 N   0  0  0  0  0
   -5.1648    0.0187  -19.1292 N   0  0  0  0  0
   -6.6970   -0.9259  -19.6891 Si  0  0  0  0  0
  6  1  1  0  0  0
  6  7  1  0  0  0
  7  2  1  0  0  0
  8  2  1  0  0  0
  8  9  1  0  0  0
  9 46  1  0  0  0
 10  3  1  0  0  0
 10 11  1  0  0  0
 11  4  1  0  0  0
 12  4  1  0  0  0
 12 13  1  0  0  0
 13  5  1  0  0  0
 15 50  1  0  0  0
 16 51  1  0  0  0
 16 40  1  0  0  0
 17 52  1  0  0  0
 18 19  1  0  0  0
 20 21  1  0  0  0
 22 23  1  0  0  0
 23 18  1  0  0  0
 24 53  1  0  0  0
 24 56  1  0  0  0
 25 54  1  0  0  0
 26 55  1  0  0  0
 26 34  1  0  0  0
 27 28  1  0  0  0
 27 49  1  0  0  0
 29 30  1  0  0  0
 31 32  1  0  0  0
 33 28  1  0  0  0
 33 14  1  0  0  0
 35 36  1  0  0  0
 35 25  1  0  0  0
 37 38  1  0  0  0
 39 34  1  0  0  0
 41 42  1  0  0  0
 41 15  1  0  0  0
 43 44  1  0  0  0
 45 40  1  0  0  0
 49 14  1  0  0  0
 56 17  1  0  0  0
 57  1  1  0  0  0
 57  3  1  0  0  0
 57 49  1  0  0  0
 57 56  1  0  0  0
 14 50  2  0  0  0
 15 51  2  0  0  0
 16 52  2  0  0  0
 17 18  2  0  0  0
 19 20  2  0  0  0
 21 22  2  0  0  0
 23 24  2  0  0  0
 25 53  2  0  0  0
 26 54  2  0  0  0
 27 55  2  0  0  0
 28 29  2  0  0  0
 30 31  2  0  0  0
 32 33  2  0  0  0
 34 35  2  0  0  0
 36 37  2  0  0  0
 38 39  2  0  0  0
 40 41  2  0  0  0
 42 43  2  0  0  0
 44 45  2  0  0  0
 46 47  2  0  0  0
 47 48  2  0  0  0
M  CHG  2  47   1  48  -1
M  END
> <rmsd>
0.66282618

$$$$
CHEMBL1596388 PubChem-24867536


 48 52  0  0  0  0  0  0  0  0999 V2000
    0.0360    2.8113  -16.0916 S   0  0  0  0  0
   -1.1186    1.6530  -15.9677 C   0  0  0  0  0
   -2.1301    1.4535  -17.0290 C   0  0  0  0  0
   -3.1271    0.4797  -16.8767 C   0  0  0  0  0
   -5.0806   -0.7401  -17.6280 C   0  0  0  0  0
   -6.3852   -1.6368  -19.2488 C   0  0  0  0  0
   -7.3358   -1.0003  -18.2676 C   0  0  0  0  0
   -6.4494   -0.1154  -17.4606 C   0  0  0  0  0
   -6.8473   -3.0453  -19.5693 C   0  0  0  0  0
   -3.1250   -7.8771  -19.8593 C   0  0  0  0  0
   -2.7238   -9.2636  -19.3748 C   0  0  0  0  0
   -1.0764  -10.7107  -19.1127 C   0  0  0  0  0
    1.2997   -9.9058  -18.8423 C   0  0  0  0  0
    2.2090   -7.8706  -18.1540 C   0  0  0  0  0
    3.6553   -9.6499  -18.8139 C   0  0  0  0  0
    2.5281  -10.4228  -19.0549 C   0  0  0  0  0
    1.0887  -11.9038  -19.5547 C   0  0  0  0  0
   -1.5617  -10.4493  -17.6974 C   0  0  0  0  0
   -2.5987   -9.3748  -17.8633 C   0  0  0  0  0
   -4.0588    1.0278  -18.9878 C   0  0  0  0  0
   -3.0870    2.0098  -19.1858 C   0  0  0  0  0
   -2.1216    2.2203  -18.2016 C   0  0  0  0  0
   -1.1372    0.8322  -14.8028 N   0  0  0  0  0
   -4.0639    0.2826  -17.8449 N   0  0  0  0  0
    0.3754  -10.8221  -19.1520 N   0  0  0  0  0
    1.1034   -8.6405  -18.3954 N   0  0  0  0  0
    3.4690   -8.3736  -18.3631 N   0  0  0  0  0
    4.9650  -10.1554  -19.0444 N   0  0  0  0  0
    2.4349  -11.6886  -19.5055 N   0  0  0  0  0
   -5.0918   -1.6635  -18.6941 O   0  0  0  0  0
   -8.2776   -0.2307  -18.9522 O   0  0  0  0  0
   -6.8286   -0.1587  -16.1201 O   0  0  0  0  0
   -6.0523   -3.5865  -20.5822 O   0  0  0  0  0
   -8.0055   -5.1968  -21.2619 O   0  0  0  0  0
   -6.5285   -5.9865  -19.2506 O   0  0  0  0  0
   -4.7735   -6.7554  -17.4809 O   0  0  0  0  0
   -4.5173   -7.7741  -19.8804 O   0  0  0  0  0
   -1.5077   -9.6615  -19.9391 O   0  0  0  0  0
   -2.1519  -11.6048  -17.1815 O   0  0  0  0  0
    0.1379  -12.4119  -16.1731 O   0  0  0  0  0
   -2.0234  -13.2535  -14.9712 O   0  0  0  0  0
   -1.1805  -10.6387  -14.7635 O   0  0  0  0  0
   -2.0988   -8.1922  -17.3109 O   0  0  0  0  0
   -3.8666   -5.1164  -19.2998 O   0  0  0  0  0
   -5.6055   -5.9748  -21.8992 O   0  0  0  0  0
   -6.5794   -5.1905  -20.7556 P   0  0  0  0  0
   -4.9079   -6.4087  -18.9471 P   0  0  0  0  0
   -1.2609  -11.9842  -15.7869 P   0  0  0  0  0
  2 23  1  0  0  0
  2  3  1  0  0  0
  4 24  1  0  0  0
  5 24  1  0  0  0
  5 30  1  0  0  0
  6 30  1  0  0  0
  6  7  1  0  0  0
  6  9  1  0  0  0
  7 31  1  0  0  0
  7  8  1  0  0  0
  8 32  1  0  0  0
  8  5  1  0  0  0
  9 33  1  0  0  0
 10 37  1  0  0  0
 11 10  1  0  0  0
 11 38  1  0  0  0
 12 38  1  0  0  0
 12 25  1  0  0  0
 12 18  1  0  0  0
 14 26  1  0  0  0
 15 27  1  0  0  0
 15 28  1  0  0  0
 16 29  1  0  0  0
 16 13  1  0  0  0
 17 25  1  0  0  0
 18 39  1  0  0  0
 18 19  1  0  0  0
 19 43  1  0  0  0
 19 11  1  0  0  0
 20 21  1  0  0  0
 22  3  1  0  0  0
 25 13  1  0  0  0
 46 33  1  0  0  0
 46 35  1  0  0  0
 46 45  1  0  0  0
 47 35  1  0  0  0
 47 37  1  0  0  0
 47 44  1  0  0  0
 48 39  1  0  0  0
 48 41  1  0  0  0
 48 42  1  0  0  0
  2  1  2  0  0  0
  3  4  2  0  0  0
 13 26  2  0  0  0
 14 27  2  0  0  0
 15 16  2  0  0  0
 17 29  2  0  0  0
 21 22  2  0  0  0
 24 20  2  0  0  0
 46 34  2  0  0  0
 47 36  2  0  0  0
 48 40  2  0  0  0
M  CHG  3  24   1  41  -1  45  -1
M  END
> <rmsd>
0.657635927

$$$$
CHEMBL2326351 PubChem-71600123


 67 73  0  0  0  0  0  0  0  0999 V2000
   -8.6796   -0.6994  -18.4059 O   0  0  0  0  0
   -6.9195    0.1255  -16.9165 O   0  0  0  0  0
   -6.3058   -0.2155  -19.4442 O   0  0  0  0  0
   -7.6195   -2.3621  -20.4628 O   0  0  0  0  0
   -3.9488   -2.9623  -18.9729 O   0  0  0  0  0
   -0.2551   -0.4789  -16.7776 O   0  0  0  0  0
    1.2010    0.8720   -8.7507 O   0  0  0  0  0
   -3.1322   -4.8003   -4.4080 O   0  0  0  0  0
   -4.6860   -2.6947   -4.6812 O   0  0  0  0  0
   -3.3655   -2.8875   -2.6208 O   0  0  0  0  0
   -5.4261   -4.4445   -2.9086 O   0  0  0  0  0
   -0.9994    2.2967  -16.8028 O   0  0  0  0  0
   -1.3480    4.3837  -18.3686 O   0  0  0  0  0
   -0.1874    4.7296  -16.2324 O   0  0  0  0  0
   -2.7600    4.3558  -16.1773 O   0  0  0  0  0
   -7.8968   -4.9003  -20.9686 O   0  0  0  0  0
   -4.0965   -7.6682  -19.8327 O   0  0  0  0  0
   -2.2382   -9.4342  -19.2729 O   0  0  0  0  0
   -1.5078   -7.1904  -19.9363 O   0  0  0  0  0
   -2.5210   -7.5021  -17.5592 O   0  0  0  0  0
   -7.9948    1.7949  -18.5829 O   0  0  0  0  0
   -7.4975    0.2183  -18.2984 S   0  0  0  0  0
   -4.1475   -3.6493   -3.6528 S   0  0  0  0  0
   -1.2968    3.9825  -16.9184 S   0  0  0  0  0
   -2.5457   -7.9666  -19.1737 S   0  0  0  0  0
   -5.7428   -1.4933  -19.4559 C   0  0  0  0  0
   -6.4749   -2.5715  -19.9749 C   0  0  0  0  0
   -5.9205   -3.8666  -19.9578 C   0  0  0  0  0
   -4.6171   -4.0129  -19.4306 C   0  0  0  0  0
   -4.4373   -1.7235  -18.9630 C   0  0  0  0  0
   -3.5658   -0.6494  -18.4144 C   0  0  0  0  0
   -3.9451    0.7008  -18.4035 C   0  0  0  0  0
   -3.1005    1.6737  -17.8670 C   0  0  0  0  0
   -1.8592    1.3192  -17.3192 C   0  0  0  0  0
   -1.4725   -0.0396  -17.3144 C   0  0  0  0  0
   -2.3194   -0.9985  -17.8746 C   0  0  0  0  0
    0.3989    0.1443  -15.6746 C   0  0  0  0  0
   -0.3124   -0.1990  -14.4113 C   0  0  0  0  0
   -0.3959   -1.4577  -13.8502 C   0  0  0  0  0
   -1.6019   -2.3355  -11.8550 C   0  0  0  0  0
   -0.5171   -2.5758  -10.8195 C   0  0  0  0  0
   -0.5686   -1.5030   -9.7521 C   0  0  0  0  0
    0.5153   -1.7643   -8.7210 C   0  0  0  0  0
   -0.1865   -1.3604   -6.3844 C   0  0  0  0  0
   -0.0993    0.8121   -5.4340 C   0  0  0  0  0
    0.4738    1.3189   -6.6110 C   0  0  0  0  0
    0.6895    0.4396   -7.6793 C   0  0  0  0  0
    0.8059    2.6795   -6.6898 C   0  0  0  0  0
    0.5617    3.5249   -5.6037 C   0  0  0  0  0
   -0.0138    3.0174   -4.4351 C   0  0  0  0  0
   -0.3421    1.6611   -4.3493 C   0  0  0  0  0
   -0.5460   -2.7874   -6.1836 C   0  0  0  0  0
   -1.6638   -3.1139   -5.4027 C   0  0  0  0  0
   -2.0118   -4.4533   -5.1682 C   0  0  0  0  0
   -1.2229   -5.4716   -5.7096 C   0  0  0  0  0
   -0.0960   -5.1587   -6.4733 C   0  0  0  0  0
    0.2440   -3.8227   -6.7025 C   0  0  0  0  0
   -4.0117   -5.2685  -19.3873 C   0  0  0  0  0
   -4.6817   -6.3998  -19.8659 C   0  0  0  0  0
   -5.9677   -6.2624  -20.3890 C   0  0  0  0  0
   -6.6026   -5.0105  -20.4423 C   0  0  0  0  0
   -8.6239   -6.0102  -21.4806 C   0  0  0  0  0
   -1.1986   -1.2918  -12.7819 N   0  0  0  0  0
   -1.5804   -0.0259  -12.6969 N   0  0  0  0  0
   -1.0553    0.6695  -13.6923 N   0  0  0  0  0
    0.3438   -0.8832   -7.5634 N   0  0  0  0  0
   -0.4114   -0.5022   -5.3516 N   0  0  0  0  0
 22  3  1  0  0  0
 22 21  1  0  0  0
 23  8  1  0  0  0
 23 11  1  0  0  0
 24 12  1  0  0  0
 24 15  1  0  0  0
 25 17  1  0  0  0
 25 20  1  0  0  0
 26  3  1  0  0  0
 26 27  1  0  0  0
 27 28  1  0  0  0
 29  5  1  0  0  0
 29 58  1  0  0  0
 30  5  1  0  0  0
 30 31  1  0  0  0
 32 33  1  0  0  0
 34 35  1  0  0  0
 34 12  1  0  0  0
 35  6  1  0  0  0
 36 31  1  0  0  0
 37  6  1  0  0  0
 37 38  1  0  0  0
 38 65  1  0  0  0
 39 63  1  0  0  0
 40 63  1  0  0  0
 40 41  1  0  0  0
 41 42  1  0  0  0
 42 43  1  0  0  0
 43 66  1  0  0  0
 44 52  1  0  0  0
 45 67  1  0  0  0
 46 47  1  0  0  0
 46 48  1  0  0  0
 47 66  1  0  0  0
 49 50  1  0  0  0
 51 45  1  0  0  0
 53 54  1  0  0  0
 54  8  1  0  0  0
 55 56  1  0  0  0
 57 52  1  0  0  0
 59 60  1  0  0  0
 59 17  1  0  0  0
 61 16  1  0  0  0
 61 28  1  0  0  0
 62 16  1  0  0  0
 63 64  1  0  0  0
 66 44  1  0  0  0
 22  1  2  0  0  0
 22  2  2  0  0  0
 23  9  2  0  0  0
 23 10  2  0  0  0
 24 13  2  0  0  0
 24 14  2  0  0  0
 25 18  2  0  0  0
 25 19  2  0  0  0
 27  4  2  0  0  0
 28 29  2  0  0  0
 30 26  2  0  0  0
 31 32  2  0  0  0
 33 34  2  0  0  0
 35 36  2  0  0  0
 38 39  2  0  0  0
 44 67  2  0  0  0
 45 46  2  0  0  0
 47  7  2  0  0  0
 48 49  2  0  0  0
 50 51  2  0  0  0
 52 53  2  0  0  0
 54 55  2  0  0  0
 56 57  2  0  0  0
 58 59  2  0  0  0
 60 61  2  0  0  0
 64 65  2  0  0  0
M  END
> <rmsd>
0.788583577

$$$$
CHEMBL4073368 PubChem-137641203


 91 97  0  0  0  0  0  0  0  0999 V2000
   -5.8252   -3.4413  -17.5114 C   0  0  0  0  0
   -6.6015   -2.7937  -18.6192 C   0  0  0  0  0
   -6.4526   -3.5716  -19.9402 C   0  0  0  0  0
   -7.6276   -5.6472  -20.5659 C   0  0  0  0  0
   -7.9284   -7.0854  -20.2865 C   0  0  0  0  0
   -6.9125   -8.7612  -21.8142 C   0  0  0  0  0
   -5.5854   -8.0401  -19.8213 C   0  0  0  0  0
   -5.3882   -7.1896  -18.5997 C   0  0  0  0  0
   -3.0117   -7.4483  -17.7902 C   0  0  0  0  0
   -2.5344   -6.4942  -18.8448 C   0  0  0  0  0
   -2.1824   -4.3749  -17.4404 C   0  0  0  0  0
   -3.5874   -4.4198  -16.8971 C   0  0  0  0  0
   -3.6951   -4.4567  -15.3640 C   0  0  0  0  0
   -3.2385   -5.7980  -14.8260 C   0  0  0  0  0
   -2.9274   -3.3434  -14.6757 C   0  0  0  0  0
   -0.3492   -5.4231  -18.8296 C   0  0  0  0  0
   -0.3672   -6.5418  -19.7914 C   0  0  0  0  0
   -1.6759   -7.2380  -19.8626 C   0  0  0  0  0
   -4.8793   -8.6716  -16.6469 C   0  0  0  0  0
   -8.4611   -7.3062  -18.8787 C   0  0  0  0  0
   -5.0540   -3.4454  -20.5234 C   0  0  0  0  0
   -7.1735   -0.3974  -19.1295 C   0  0  0  0  0
   -6.7545    0.8192  -19.8693 C   0  0  0  0  0
   -5.5092    1.4148  -19.6116 C   0  0  0  0  0
   -5.0352    2.5259  -20.4590 C   0  0  0  0  0
   -3.0440    2.5977  -19.2564 C   0  0  0  0  0
   -1.7626    3.1397  -19.0895 C   0  0  0  0  0
   -0.9435    2.6897  -18.0546 C   0  0  0  0  0
   -1.4035    1.7164  -17.1664 C   0  0  0  0  0
   -2.6884    1.1699  -17.2980 C   0  0  0  0  0
   -3.5020    1.5876  -18.3715 C   0  0  0  0  0
   -3.1573    0.2010  -16.2855 C   0  0  0  0  0
   -5.0942   -0.8312  -14.9853 C   0  0  0  0  0
   -4.5508   -0.5152  -13.5863 C   0  0  0  0  0
   -4.2838   -1.7824  -11.4435 C   0  0  0  0  0
   -4.0757   -0.5849  -10.5524 C   0  0  0  0  0
   -6.0429   -0.0166   -9.0694 C   0  0  0  0  0
   -6.4362    1.1367   -9.9569 C   0  0  0  0  0
   -8.7768    1.4369  -10.8562 C   0  0  0  0  0
   -8.3204    1.5833  -12.2841 C   0  0  0  0  0
   -9.2622   -0.3966  -13.5688 C   0  0  0  0  0
   -8.1603   -1.2899  -13.0814 C   0  0  0  0  0
   -6.5991   -0.8411  -15.0144 C   0  0  0  0  0
   -8.6853   -2.4483  -12.2285 C   0  0  0  0  0
   -7.5762   -3.0185  -11.3669 C   0  0  0  0  0
   -9.3083   -3.5549  -13.0652 C   0  0  0  0  0
  -10.0134    1.9857  -13.9732 C   0  0  0  0  0
   -9.4664    3.3342  -13.5400 C   0  0  0  0  0
   -8.2681    3.0597  -12.6405 C   0  0  0  0  0
  -11.4925    1.9120  -13.6383 C   0  0  0  0  0
   -8.2479    2.1434   -8.5224 C   0  0  0  0  0
   -4.3569   -1.6775   -8.2780 C   0  0  0  0  0
   -2.6084   -0.1674  -10.3493 C   0  0  0  0  0
   -2.0407    0.4518  -11.6097 C   0  0  0  0  0
   -1.7146   -1.3119   -9.8983 C   0  0  0  0  0
   -5.1838    0.7475  -13.0077 C   0  0  0  0  0
   -1.2486    4.1887  -20.0148 C   0  0  0  0  0
   -5.8581    3.0129  -21.4746 C   0  0  0  0  0
   -7.1222    2.4389  -21.6788 C   0  0  0  0  0
   -7.5657    1.3542  -20.8972 C   0  0  0  0  0
   -5.3928    4.1431  -22.3375 C   0  0  0  0  0
   -6.4336   -4.1777  -16.6933 O   0  0  0  0  0
   -6.7523   -4.9447  -19.7383 O   0  0  0  0  0
   -8.1479   -5.0881  -21.5710 O   0  0  0  0  0
   -4.6483   -8.7946  -20.1986 O   0  0  0  0  0
   -2.1816   -7.9682  -16.9951 O   0  0  0  0  0
   -1.4452   -3.3816  -17.1919 O   0  0  0  0  0
    0.6003   -6.8641  -20.4591 O   0  0  0  0  0
   -8.3860   -0.5786  -18.8356 O   0  0  0  0  0
   -3.8275    3.0297  -20.2421 O   0  0  0  0  0
   -2.3127   -0.4784  -15.6389 O   0  0  0  0  0
   -4.7539   -1.6530  -12.7526 O   0  0  0  0  0
   -4.0846   -2.9382  -10.9874 O   0  0  0  0  0
   -6.7833   -0.3466   -8.1030 O   0  0  0  0  0
  -10.0111    1.3581  -10.5992 O   0  0  0  0  0
  -10.1608   -0.8648  -14.3209 O   0  0  0  0  0
   -7.2329   -0.0299  -15.7415 O   0  0  0  0  0
   -7.0897    3.3306  -13.3438 O   0  0  0  0  0
   -7.8652    2.8851  -22.5965 O   0  0  0  0  0
   -6.7984   -7.9631  -20.6045 N   0  0  0  0  0
   -4.4093   -7.7692  -17.6873 N   0  0  0  0  0
   -1.6920   -5.4339  -18.2787 N   0  0  0  0  0
   -4.3988   -3.3589  -17.4821 N   0  0  0  0  0
   -6.2114   -1.4020  -18.8065 N   0  0  0  0  0
   -4.7144    1.0149  -18.5884 N   0  0  0  0  0
   -4.5562    0.0862  -15.9822 N   0  0  0  0  0
   -4.8064   -0.7197   -9.2860 N   0  0  0  0  0
   -7.8364    1.5196   -9.7747 N   0  0  0  0  0
   -9.2778    0.9929  -13.2085 N   0  0  0  0  0
   -7.3107   -1.7547  -14.1771 N   0  0  0  0  0
   -8.8400    0.7738  -21.1865 N   0  0  0  0  0
  2  1  1  0  0  0
  2  3  1  0  0  0
  2 84  1  0  0  0
  3 63  1  0  0  0
  3 21  1  0  0  0
  4 63  1  0  0  0
  5  4  1  0  0  0
  5 80  1  0  0  0
  5 20  1  0  0  0
  6 80  1  0  0  0
  8  7  1  0  0  0
  8 81  1  0  0  0
 10  9  1  0  0  0
 10 82  1  0  0  0
 10 18  1  0  0  0
 12 11  1  0  0  0
 12 83  1  0  0  0
 12 13  1  0  0  0
 13 14  1  0  0  0
 13 15  1  0  0  0
 16 82  1  0  0  0
 16 17  1  0  0  0
 18 17  1  0  0  0
 19 81  1  0  0  0
 22 23  1  0  0  0
 23 24  1  0  0  0
 24 25  1  0  0  0
 25 70  1  0  0  0
 26 70  1  0  0  0
 27 28  1  0  0  0
 29 30  1  0  0  0
 30 32  1  0  0  0
 31 85  1  0  0  0
 31 26  1  0  0  0
 32 86  1  0  0  0
 33 86  1  0  0  0
 33 34  1  0  0  0
 33 43  1  0  0  0
 34 72  1  0  0  0
 34 56  1  0  0  0
 35 72  1  0  0  0
 36 35  1  0  0  0
 36 87  1  0  0  0
 36 53  1  0  0  0
 38 37  1  0  0  0
 38 88  1  0  0  0
 40 39  1  0  0  0
 40 89  1  0  0  0
 42 41  1  0  0  0
 42 90  1  0  0  0
 42 44  1  0  0  0
 44 45  1  0  0  0
 44 46  1  0  0  0
 47 89  1  0  0  0
 47 48  1  0  0  0
 47 50  1  0  0  0
 48 49  1  0  0  0
 49 78  1  0  0  0
 49 40  1  0  0  0
 51 88  1  0  0  0
 52 87  1  0  0  0
 53 54  1  0  0  0
 53 55  1  0  0  0
 57 27  1  0  0  0
 58 59  1  0  0  0
 59 60  1  0  0  0
 60 91  1  0  0  0
 61 58  1  0  0  0
 80  7  1  0  0  0
 81  9  1  0  0  0
 82 11  1  0  0  0
 83  1  1  0  0  0
 84 22  1  0  0  0
 87 37  1  0  0  0
 88 39  1  0  0  0
 89 41  1  0  0  0
 90 43  1  0  0  0
  1 62  2  0  0  0
  4 64  2  0  0  0
  7 65  2  0  0  0
  9 66  2  0  0  0
 11 67  2  0  0  0
 17 68  2  0  0  0
 22 69  2  0  0  0
 24 85  2  0  0  0
 25 58  2  0  0  0
 26 27  2  0  0  0
 28 29  2  0  0  0
 30 31  2  0  0  0
 32 71  2  0  0  0
 35 73  2  0  0  0
 37 74  2  0  0  0
 39 75  2  0  0  0
 41 76  2  0  0  0
 43 77  2  0  0  0
 59 79  2  0  0  0
 60 23  2  0  0  0
M  END
> <rmsd>
0.733005941

$$$$
CHEMBL4207700 PubChem-145978163


 85 91  0  0  0  0  0  0  0  0999 V2000
   -1.4477   -7.1188  -19.4824 O   0  0  0  0  0
   -2.8071   -7.5521  -17.4795 O   0  0  0  0  0
   -4.0021   -7.6382  -19.8051 O   0  0  0  0  0
   -7.7846   -4.9577  -21.1894 O   0  0  0  0  0
  -11.5417   -8.0713  -17.0936 O   0  0  0  0  0
  -10.9423  -13.2514  -15.2214 O   0  0  0  0  0
   -9.9075  -16.9589  -10.5408 O   0  0  0  0  0
  -12.3916  -17.3595   -9.7891 O   0  0  0  0  0
  -10.9914  -19.3411  -10.2244 O   0  0  0  0  0
  -10.5345  -17.9811   -8.0674 O   0  0  0  0  0
   -9.4621  -18.8831  -12.5479 O   0  0  0  0  0
   -7.9563  -19.5687  -14.5889 O   0  0  0  0  0
  -10.2667  -20.4001  -14.5253 O   0  0  0  0  0
   -8.5357  -21.4603  -12.8983 O   0  0  0  0  0
  -11.9785  -10.3814  -12.6241 O   0  0  0  0  0
  -11.6390  -12.8971  -11.6472 O   0  0  0  0  0
  -13.8559  -14.2896  -11.8400 O   0  0  0  0  0
  -14.0480  -11.9635  -11.1066 O   0  0  0  0  0
  -13.0902  -13.6938   -9.4374 O   0  0  0  0  0
  -11.1680  -10.2207  -18.9323 O   0  0  0  0  0
   -9.2506  -11.7906  -19.7857 O   0  0  0  0  0
  -10.7120  -10.7748  -21.4558 O   0  0  0  0  0
  -11.6770  -12.7182  -20.0298 O   0  0  0  0  0
   -7.6331   -2.4260  -20.6246 O   0  0  0  0  0
   -4.0018   -2.9226  -18.9983 O   0  0  0  0  0
   -1.4366    2.6003  -16.9578 O   0  0  0  0  0
   -0.3241    4.0024  -15.0312 O   0  0  0  0  0
   -2.7402    3.5721  -14.8968 O   0  0  0  0  0
   -1.0944    1.6164  -14.3658 O   0  0  0  0  0
   -3.1362    3.0588  -19.0933 O   0  0  0  0  0
   -3.6558    2.7252  -21.6518 O   0  0  0  0  0
   -4.0886    4.9253  -20.6705 O   0  0  0  0  0
   -5.7164    2.9864  -20.0809 O   0  0  0  0  0
   -6.4047   -0.2488  -19.5658 O   0  0  0  0  0
   -8.6257   -0.7657  -18.2617 O   0  0  0  0  0
   -7.9661    1.5876  -18.4988 O   0  0  0  0  0
   -6.6433    0.1174  -16.8295 O   0  0  0  0  0
   -2.2028   -9.5632  -18.9971 O   0  0  0  0  0
   -2.5821   -7.9295  -18.9129 S   0  0  0  0  0
  -11.0032  -17.9398   -9.6820 S   0  0  0  0  0
   -9.0569  -20.0782  -13.6984 S   0  0  0  0  0
  -13.2073  -13.2012  -11.0342 S   0  0  0  0  0
  -10.6649  -11.3777  -20.0856 S   0  0  0  0  0
   -1.4048    2.9917  -15.2890 S   0  0  0  0  0
   -4.1356    3.4459  -20.4222 S   0  0  0  0  0
   -7.4587    0.1850  -18.2941 S   0  0  0  0  0
   -4.6124   -6.3826  -19.8891 C   0  0  0  0  0
   -3.9962   -5.2357  -19.3780 C   0  0  0  0  0
   -4.6234   -3.9940  -19.4718 C   0  0  0  0  0
   -5.9003   -3.8824  -20.0707 C   0  0  0  0  0
   -6.5226   -5.0428  -20.5888 C   0  0  0  0  0
   -8.5566   -6.0946  -21.5443 C   0  0  0  0  0
   -9.3407   -6.5688  -20.3620 C   0  0  0  0  0
  -10.6816   -6.1995  -20.1716 C   0  0  0  0  0
  -11.3842   -6.6946  -19.0681 C   0  0  0  0  0
  -10.7648   -7.5424  -18.1391 C   0  0  0  0  0
  -11.4888   -9.4093  -16.6632 C   0  0  0  0  0
  -11.2297  -10.4720  -17.5556 C   0  0  0  0  0
  -11.0511  -11.7706  -17.0532 C   0  0  0  0  0
  -11.1742  -12.0283  -15.6868 C   0  0  0  0  0
  -11.0374  -13.5757  -13.9310 C   0  0  0  0  0
  -10.6979  -14.9708  -13.5493 C   0  0  0  0  0
  -10.5143  -15.9332  -14.5533 C   0  0  0  0  0
  -10.1227  -17.2345  -14.2312 C   0  0  0  0  0
   -9.9079  -17.6010  -12.8917 C   0  0  0  0  0
  -10.1041  -16.6474  -11.8827 C   0  0  0  0  0
  -10.4719  -15.3434  -12.2192 C   0  0  0  0  0
  -11.4458  -12.5908  -12.9972 C   0  0  0  0  0
  -11.6730  -11.2862  -13.4492 C   0  0  0  0  0
  -11.5322  -10.9891  -14.8103 C   0  0  0  0  0
  -11.6834   -9.6841  -15.3040 C   0  0  0  0  0
   -9.3913   -7.8388  -18.2908 C   0  0  0  0  0
   -8.7054   -7.3655  -19.4080 C   0  0  0  0  0
   -8.6213   -8.6122  -17.2723 C   0  0  0  0  0
  -11.3829   -5.3045  -21.1354 C   0  0  0  0  0
   -5.8644   -6.2811  -20.4919 C   0  0  0  0  0
   -6.4933   -2.6036  -20.1139 C   0  0  0  0  0
   -5.8049   -1.5075  -19.5866 C   0  0  0  0  0
   -4.5213   -1.6996  -19.0435 C   0  0  0  0  0
   -3.7289   -0.5743  -18.4982 C   0  0  0  0  0
   -3.8159    0.7120  -19.0546 C   0  0  0  0  0
   -3.0519    1.7728  -18.5475 C   0  0  0  0  0
   -2.1987    1.5459  -17.4579 C   0  0  0  0  0
   -2.0965    0.2632  -16.9043 C   0  0  0  0  0
   -2.8503   -0.7927  -17.4214 C   0  0  0  0  0
 39  3  1  0  0  0
 39 38  1  0  0  0
 40  7  1  0  0  0
 40 10  1  0  0  0
 41 11  1  0  0  0
 41 14  1  0  0  0
 42 16  1  0  0  0
 42 19  1  0  0  0
 43 20  1  0  0  0
 43 23  1  0  0  0
 44 26  1  0  0  0
 44 29  1  0  0  0
 45 30  1  0  0  0
 45 33  1  0  0  0
 46 34  1  0  0  0
 46 37  1  0  0  0
 47  3  1  0  0  0
 48 49  1  0  0  0
 49 25  1  0  0  0
 50 51  1  0  0  0
 50 77  1  0  0  0
 51  4  1  0  0  0
 52  4  1  0  0  0
 52 53  1  0  0  0
 54 55  1  0  0  0
 56  5  1  0  0  0
 56 72  1  0  0  0
 57  5  1  0  0  0
 58 59  1  0  0  0
 58 20  1  0  0  0
 60  6  1  0  0  0
 61  6  1  0  0  0
 61 62  1  0  0  0
 63 64  1  0  0  0
 65 66  1  0  0  0
 65 11  1  0  0  0
 66  7  1  0  0  0
 67 62  1  0  0  0
 68 69  1  0  0  0
 68 16  1  0  0  0
 69 70  1  0  0  0
 70 60  1  0  0  0
 71 57  1  0  0  0
 73 53  1  0  0  0
 74 72  1  0  0  0
 75 54  1  0  0  0
 76 47  1  0  0  0
 77 78  1  0  0  0
 78 34  1  0  0  0
 79 25  1  0  0  0
 79 80  1  0  0  0
 81 82  1  0  0  0
 82 30  1  0  0  0
 83 84  1  0  0  0
 83 26  1  0  0  0
 85 80  1  0  0  0
 39  1  2  0  0  0
 39  2  2  0  0  0
 40  8  2  0  0  0
 40  9  2  0  0  0
 41 12  2  0  0  0
 41 13  2  0  0  0
 42 17  2  0  0  0
 42 18  2  0  0  0
 43 21  2  0  0  0
 43 22  2  0  0  0
 44 27  2  0  0  0
 44 28  2  0  0  0
 45 31  2  0  0  0
 45 32  2  0  0  0
 46 35  2  0  0  0
 46 36  2  0  0  0
 47 48  2  0  0  0
 49 50  2  0  0  0
 51 76  2  0  0  0
 53 54  2  0  0  0
 55 56  2  0  0  0
 57 58  2  0  0  0
 59 60  2  0  0  0
 61 68  2  0  0  0
 62 63  2  0  0  0
 64 65  2  0  0  0
 66 67  2  0  0  0
 69 15  2  0  0  0
 70 71  2  0  0  0
 72 73  2  0  0  0
 77 24  2  0  0  0
 78 79  2  0  0  0
 80 81  2  0  0  0
 82 83  2  0  0  0
 84 85  2  0  0  0
M  CHG  8  10  -1  14  -1  19  -1  23  -1  29  -1  33  -1  37  -1  38  -1
M  END
> <rmsd>
0.806420207

$$$$
CHEMBL4117147 PubChem-137630855


 60 65  0  0  0  0  0  0  0  0999 V2000
   -2.5356   -6.9489  -20.5253 O   0  0  0  0  0
   -1.8699   -8.2658  -18.3869 O   0  0  0  0  0
   -3.4816   -6.4311  -18.1574 O   0  0  0  0  0
   -4.3072   -8.6668  -19.2656 O   0  0  0  0  0
   -9.5074   -6.3211  -22.2174 O   0  0  0  0  0
   -8.6161   -9.9631  -20.8015 O   0  0  0  0  0
  -13.4604  -14.1056  -21.7091 O   0  0  0  0  0
  -15.6559  -15.3709  -22.3887 O   0  0  0  0  0
  -15.8072  -12.9527  -22.0189 O   0  0  0  0  0
  -14.6476  -13.7935  -24.1905 O   0  0  0  0  0
   -7.2095   -5.3788  -21.4004 O   0  0  0  0  0
   -2.8127   -2.5966  -19.6411 O   0  0  0  0  0
   -0.6855   -1.2409  -18.9439 O   0  0  0  0  0
   -2.9465    1.6776  -17.3871 O   0  0  0  0  0
   -7.0429   -0.5453  -18.4958 O   0  0  0  0  0
   -9.4810    0.3353  -18.0983 O   0  0  0  0  0
   -7.7579    0.9851  -16.4807 O   0  0  0  0  0
   -7.7360    2.1151  -18.8229 O   0  0  0  0  0
    0.6242    6.3650  -14.8113 O   0  0  0  0  0
    2.7673    5.5159  -13.5507 O   0  0  0  0  0
    2.5038    7.9315  -13.8695 O   0  0  0  0  0
    3.1613    6.4906  -15.9297 O   0  0  0  0  0
   -3.0250   -7.5591  -19.0385 S   0  0  0  0  0
  -14.9443  -14.0586  -22.5579 S   0  0  0  0  0
   -8.0400    0.7240  -17.9328 S   0  0  0  0  0
    2.2905    6.5824  -14.4952 S   0  0  0  0  0
   -5.5158   -8.3238  -19.8793 C   0  0  0  0  0
   -5.7679   -7.0227  -20.3292 C   0  0  0  0  0
   -6.9779   -6.6903  -20.9595 C   0  0  0  0  0
   -7.9602   -7.6932  -21.1385 C   0  0  0  0  0
   -9.2024   -7.4549  -21.7614 C   0  0  0  0  0
  -10.1205   -8.4947  -21.8797 C   0  0  0  0  0
   -9.7991   -9.7621  -21.3790 C   0  0  0  0  0
   -7.7053   -9.0048  -20.6656 C   0  0  0  0  0
   -6.4903   -9.3063  -20.0471 C   0  0  0  0  0
  -10.7600  -10.8791  -21.4804 C   0  0  0  0  0
  -11.9841  -10.7224  -22.1487 C   0  0  0  0  0
  -12.8854  -11.7863  -22.2332 C   0  0  0  0  0
  -12.5775  -13.0233  -21.6477 C   0  0  0  0  0
  -11.3585  -13.1820  -20.9819 C   0  0  0  0  0
  -10.4548  -12.1184  -20.9001 C   0  0  0  0  0
   -6.3291   -4.2924  -21.1318 C   0  0  0  0  0
   -5.0853   -4.3782  -22.0034 C   0  0  0  0  0
   -4.0797   -3.3268  -21.5713 C   0  0  0  0  0
   -3.4460   -3.7201  -20.2452 C   0  0  0  0  0
   -3.5181   -1.5282  -19.0665 C   0  0  0  0  0
   -2.8263   -0.4305  -18.4993 C   0  0  0  0  0
   -1.4200   -0.3391  -18.4602 C   0  0  0  0  0
   -0.8201    0.7717  -17.8712 C   0  0  0  0  0
   -1.6210    1.7847  -17.3309 C   0  0  0  0  0
   -3.5663    0.6363  -17.9326 C   0  0  0  0  0
   -4.9607    0.6033  -17.9354 C   0  0  0  0  0
   -5.6464   -0.4840  -18.4876 C   0  0  0  0  0
   -4.9227   -1.5386  -19.0436 C   0  0  0  0  0
   -1.0148    2.9699  -16.6914 C   0  0  0  0  0
    0.3743    3.0709  -16.5162 C   0  0  0  0  0
    0.9292    4.1920  -15.8935 C   0  0  0  0  0
    0.1030    5.2301  -15.4385 C   0  0  0  0  0
   -1.2797    5.1316  -15.6144 C   0  0  0  0  0
   -1.8355    4.0094  -16.2341 C   0  0  0  0  0
 23  1  1  0  0  0
 23  4  1  0  0  0
 24  7  1  0  0  0
 24 10  1  0  0  0
 25 15  1  0  0  0
 25 18  1  0  0  0
 26 19  1  0  0  0
 26 22  1  0  0  0
 27  4  1  0  0  0
 28 29  1  0  0  0
 29 11  1  0  0  0
 30 31  1  0  0  0
 31 32  1  0  0  0
 33  6  1  0  0  0
 33 36  1  0  0  0
 34  6  1  0  0  0
 34 30  1  0  0  0
 35 27  1  0  0  0
 37 38  1  0  0  0
 39 40  1  0  0  0
 39  7  1  0  0  0
 41 36  1  0  0  0
 42 11  1  0  0  0
 42 43  1  0  0  0
 43 44  1  0  0  0
 44 45  1  0  0  0
 45 12  1  0  0  0
 46 12  1  0  0  0
 47 48  1  0  0  0
 48 49  1  0  0  0
 50 14  1  0  0  0
 50 55  1  0  0  0
 51 14  1  0  0  0
 51 47  1  0  0  0
 52 53  1  0  0  0
 53 15  1  0  0  0
 54 46  1  0  0  0
 56 57  1  0  0  0
 58 59  1  0  0  0
 58 19  1  0  0  0
 60 55  1  0  0  0
 23  2  2  0  0  0
 23  3  2  0  0  0
 24  8  2  0  0  0
 24  9  2  0  0  0
 25 16  2  0  0  0
 25 17  2  0  0  0
 26 20  2  0  0  0
 26 21  2  0  0  0
 27 28  2  0  0  0
 29 30  2  0  0  0
 31  5  2  0  0  0
 32 33  2  0  0  0
 34 35  2  0  0  0
 36 37  2  0  0  0
 38 39  2  0  0  0
 40 41  2  0  0  0
 46 47  2  0  0  0
 48 13  2  0  0  0
 49 50  2  0  0  0
 51 52  2  0  0  0
 53 54  2  0  0  0
 55 56  2  0  0  0
 57 58  2  0  0  0
 59 60  2  0  0  0
M  END
> <rmsd>
0.829007089

$$$$
CHEMBL2158201 PubChem-53388478


 58 61  0  0  0  0  0  0  0  0999 V2000
   -1.5622    2.0436  -19.9827 C   0  0  0  0  0
   -2.2238    1.4410  -18.8893 C   0  0  0  0  0
   -2.8355    0.1678  -18.9654 C   0  0  0  0  0
   -3.5173   -0.3583  -17.8447 C   0  0  0  0  0
   -3.5308    0.3551  -16.6346 C   0  0  0  0  0
   -2.9099    1.6061  -16.5602 C   0  0  0  0  0
   -2.2634    2.1524  -17.6664 C   0  0  0  0  0
   -1.0425    3.9279  -18.5546 C   0  0  0  0  0
   -0.4428    5.1740  -18.3619 C   0  0  0  0  0
    0.2329    5.8120  -19.4141 C   0  0  0  0  0
    0.3014    5.1945  -20.6732 C   0  0  0  0  0
   -0.2972    3.9411  -20.8652 C   0  0  0  0  0
   -0.9652    3.3004  -19.8140 C   0  0  0  0  0
   -4.1518   -1.7240  -17.8836 C   0  0  0  0  0
   -3.7659   -3.9270  -17.6561 C   0  0  0  0  0
   -4.5137   -4.3833  -18.9155 C   0  0  0  0  0
   -5.6032   -3.3577  -19.2611 C   0  0  0  0  0
   -5.1017   -1.9119  -19.0907 C   0  0  0  0  0
   -2.7281   -4.9450  -17.1979 C   0  0  0  0  0
   -1.5049    1.4702  -21.1066 O   0  0  0  0  0
   -1.6808    3.3413  -17.5495 O   0  0  0  0  0
    0.9705    5.8448  -21.7133 O   0  0  0  0  0
    1.8940    6.1435  -24.1535 O   0  0  0  0  0
   -0.3168    5.1144  -23.8900 O   0  0  0  0  0
    1.7817    3.7009  -23.2777 O   0  0  0  0  0
    0.8421    7.0588  -19.2377 O   0  0  0  0  0
    1.6085    9.1886  -17.9202 O   0  0  0  0  0
   -0.5319    8.1762  -17.2962 O   0  0  0  0  0
    1.6568    6.9549  -16.5930 O   0  0  0  0  0
   -4.1577   -0.2036  -15.5158 O   0  0  0  0  0
   -2.8197    0.7680  -13.4677 O   0  0  0  0  0
   -4.9111    1.8875  -14.1029 O   0  0  0  0  0
   -5.0586   -0.4178  -12.9110 O   0  0  0  0  0
   -3.1407   -2.6969  -17.9009 O   0  0  0  0  0
   -6.1347   -0.9502  -19.1871 O   0  0  0  0  0
   -6.6884    0.1243  -16.8644 O   0  0  0  0  0
   -7.1220   -2.2766  -17.0929 O   0  0  0  0  0
   -8.7112   -0.6218  -18.2882 O   0  0  0  0  0
   -6.0198   -3.5547  -20.5822 O   0  0  0  0  0
   -7.9929   -4.7854  -19.3270 O   0  0  0  0  0
   -8.0110   -4.7240  -21.7700 O   0  0  0  0  0
   -8.5774   -2.5366  -20.5071 O   0  0  0  0  0
   -5.1055   -5.6334  -18.6927 O   0  0  0  0  0
   -3.1277   -6.4363  -20.2443 O   0  0  0  0  0
   -5.4033   -6.4380  -21.1675 O   0  0  0  0  0
   -4.7821   -8.2552  -19.4237 O   0  0  0  0  0
   -1.6993   -5.0569  -18.1359 O   0  0  0  0  0
    0.2686   -6.6606  -18.6721 O   0  0  0  0  0
   -0.0941   -6.0501  -16.3325 O   0  0  0  0  0
   -1.7489   -7.7276  -17.4415 O   0  0  0  0  0
   -2.7604   -0.5859  -20.1377 O   0  0  0  0  0
    1.0647    5.2201  -23.3054 S   0  0  0  0  0
    0.8716    7.8913  -17.7463 S   0  0  0  0  0
   -4.2147    0.5588  -13.9852 S   0  0  0  0  0
   -7.1357   -0.9534  -17.8084 S   0  0  0  0  0
   -7.6652   -3.9452  -20.5335 S   0  0  0  0  0
   -4.5804   -6.6626  -19.9295 S   0  0  0  0  0
   -0.7742   -6.3708  -17.6325 S   0  0  0  0  0
  1  2  1  0  0  0
  3  4  1  0  0  0
  3 51  1  0  0  0
  5  6  1  0  0  0
  5 30  1  0  0  0
  7 21  1  0  0  0
  7  2  1  0  0  0
  8 21  1  0  0  0
  9 10  1  0  0  0
 10 26  1  0  0  0
 11 12  1  0  0  0
 11 22  1  0  0  0
 13  1  1  0  0  0
 13  8  1  0  0  0
 14  4  1  0  0  0
 14 34  1  0  0  0
 15 34  1  0  0  0
 15 16  1  0  0  0
 15 19  1  0  0  0
 16 17  1  0  0  0
 16 43  1  0  0  0
 17 18  1  0  0  0
 17 39  1  0  0  0
 18 35  1  0  0  0
 18 14  1  0  0  0
 19 47  1  0  0  0
 52 22  1  0  0  0
 52 25  1  0  0  0
 53 26  1  0  0  0
 53 29  1  0  0  0
 54 30  1  0  0  0
 54 33  1  0  0  0
 55 35  1  0  0  0
 55 38  1  0  0  0
 56 39  1  0  0  0
 56 42  1  0  0  0
 57 43  1  0  0  0
 57 46  1  0  0  0
 58 47  1  0  0  0
 58 50  1  0  0  0
  1 20  2  0  0  0
  2  3  2  0  0  0
  4  5  2  0  0  0
  6  7  2  0  0  0
  8  9  2  0  0  0
 10 11  2  0  0  0
 12 13  2  0  0  0
 52 23  2  0  0  0
 52 24  2  0  0  0
 53 27  2  0  0  0
 53 28  2  0  0  0
 54 31  2  0  0  0
 54 32  2  0  0  0
 55 36  2  0  0  0
 55 37  2  0  0  0
 56 40  2  0  0  0
 56 41  2  0  0  0
 57 44  2  0  0  0
 57 45  2  0  0  0
 58 48  2  0  0  0
 58 49  2  0  0  0
M  END
> <rmsd>
0.574290633

$$$$
CHEMBL3092597 PubChem-76331805


 33 36  0  0  0  0  0  0  0  0999 V2000
   -7.8546    0.9161  -16.8254 C   0  0  0  0  0
   -7.0150   -1.2787  -17.6937 C   0  0  0  0  0
   -8.0890   -1.4915  -18.5880 C   0  0  0  0  0
   -8.1068   -2.6254  -19.3979 C   0  0  0  0  0
   -7.0830   -3.5718  -19.3251 C   0  0  0  0  0
   -6.0211   -3.3992  -18.4132 C   0  0  0  0  0
   -5.9826   -2.2286  -17.6226 C   0  0  0  0  0
   -4.8778   -4.4009  -18.4258 C   0  0  0  0  0
   -3.0094   -5.1972  -17.3370 C   0  0  0  0  0
   -2.0089   -4.4671  -18.2419 C   0  0  0  0  0
   -2.2165   -2.0510  -18.6591 C   0  0  0  0  0
   -2.1954   -0.6763  -18.1359 C   0  0  0  0  0
   -2.5797    0.4010  -18.9470 C   0  0  0  0  0
   -2.5766    1.7030  -18.4392 C   0  0  0  0  0
   -2.1910    1.9382  -17.1166 C   0  0  0  0  0
   -1.8072    0.8668  -16.2999 C   0  0  0  0  0
   -1.8111   -0.4349  -16.8100 C   0  0  0  0  0
   -3.2722   -6.6525  -17.7672 C   0  0  0  0  0
   -4.1502   -6.7108  -19.0185 C   0  0  0  0  0
   -5.3599   -5.7995  -18.8422 C   0  0  0  0  0
   -7.0862   -4.7458  -20.2180 C   0  0  0  0  0
   -6.9160   -0.1494  -16.8639 O   0  0  0  0  0
   -9.1407   -0.5904  -18.6953 O   0  0  0  0  0
   -4.9153   -1.9890  -16.7626 O   0  0  0  0  0
   -4.2236   -4.4826  -17.1760 O   0  0  0  0  0
   -1.8737   -3.1165  -17.8226 O   0  0  0  0  0
   -2.5639   -2.2668  -19.8533 O   0  0  0  0  0
   -2.1914    3.2355  -16.6197 O   0  0  0  0  0
   -1.4228    1.0887  -14.9836 O   0  0  0  0  0
   -2.0708   -7.3316  -17.9812 O   0  0  0  0  0
   -4.5764   -8.0222  -19.2324 O   0  0  0  0  0
   -6.1182   -5.7354  -20.0461 O   0  0  0  0  0
   -7.9256   -4.8479  -21.1517 O   0  0  0  0  0
  1 22  1  0  0  0
  2 22  1  0  0  0
  3 23  1  0  0  0
  3  4  1  0  0  0
  5  6  1  0  0  0
  7 24  1  0  0  0
  7  2  1  0  0  0
  8  6  1  0  0  0
  8 25  1  0  0  0
  9 25  1  0  0  0
  9 10  1  0  0  0
  9 18  1  0  0  0
 10 26  1  0  0  0
 11 26  1  0  0  0
 11 12  1  0  0  0
 13 14  1  0  0  0
 15 28  1  0  0  0
 15 16  1  0  0  0
 16 29  1  0  0  0
 17 12  1  0  0  0
 18 30  1  0  0  0
 18 19  1  0  0  0
 19 31  1  0  0  0
 19 20  1  0  0  0
 20 32  1  0  0  0
 20  8  1  0  0  0
 21 32  1  0  0  0
 21  5  1  0  0  0
  2  3  2  0  0  0
  4  5  2  0  0  0
  6  7  2  0  0  0
 11 27  2  0  0  0
 12 13  2  0  0  0
 14 15  2  0  0  0
 16 17  2  0  0  0
 21 33  2  0  0  0
M  END
> <rmsd>
0.726905465

$$$$
CHEMBL2058191 PubChem-70682115


 90101  0  0  0  0  0  0  0  0999 V2000
   -6.4220    3.1343  -18.1651 C   0  0  0  0  0
   -6.4901    4.6098  -18.4973 C   0  0  0  0  0
   -5.1126    5.2122  -18.4106 C   0  0  0  0  0
   -5.3436    6.5631  -17.7812 C   0  0  0  0  0
   -6.8199    6.5690  -17.4535 C   0  0  0  0  0
   -7.7015    8.1813  -15.7352 C   0  0  0  0  0
   -7.0873    7.2710  -13.9168 C   0  0  0  0  0
   -6.8329    6.8844  -12.6106 C   0  0  0  0  0
   -5.7398    4.9489  -13.4676 C   0  0  0  0  0
   -6.6594    6.5054  -14.9411 C   0  0  0  0  0
   -5.6802    0.5964  -19.6637 C   0  0  0  0  0
   -5.5727    0.5321  -21.1608 C   0  0  0  0  0
   -4.4917   -0.5028  -21.4119 C   0  0  0  0  0
   -4.9990   -1.9053  -21.7869 C   0  0  0  0  0
   -4.9773   -3.3355  -20.0978 C   0  0  0  0  0
   -5.9242   -5.7693  -21.4684 C   0  0  0  0  0
   -6.6772   -5.7760  -22.7799 C   0  0  0  0  0
   -6.3749   -7.1350  -23.3677 C   0  0  0  0  0
   -6.1690   -7.0103  -24.8677 C   0  0  0  0  0
   -8.7559  -10.3239  -25.8566 C   0  0  0  0  0
  -10.1612  -10.6946  -26.2468 C   0  0  0  0  0
  -10.4241  -11.9529  -25.4411 C   0  0  0  0  0
  -10.6389  -13.1485  -26.3614 C   0  0  0  0  0
   -8.5711  -11.0370  -24.5382 C   0  0  0  0  0
   -6.3370  -12.0613  -25.1549 C   0  0  0  0  0
   -5.1711  -11.5797  -23.4509 C   0  0  0  0  0
   -4.2173  -11.4445  -22.4524 C   0  0  0  0  0
   -5.8681  -10.3476  -21.1204 C   0  0  0  0  0
   -6.4179  -11.0932  -23.2598 C   0  0  0  0  0
   -5.2489   -7.1249  -21.4446 C   0  0  0  0  0
   -2.8780   -6.2415  -21.3518 C   0  0  0  0  0
   -2.1139   -7.2837  -19.6686 C   0  0  0  0  0
   -1.3772   -7.8236  -18.6261 C   0  0  0  0  0
   -3.2952   -9.1097  -18.0273 C   0  0  0  0  0
   -3.3945   -7.6687  -19.8556 C   0  0  0  0  0
   -4.4231   -0.0992  -19.1802 C   0  0  0  0  0
   -3.4529    0.7345  -17.0166 C   0  0  0  0  0
   -2.3686    2.4504  -17.6414 C   0  0  0  0  0
   -1.5733    3.5773  -17.7767 C   0  0  0  0  0
   -1.9881    3.5042  -20.1236 C   0  0  0  0  0
   -2.9432    1.8957  -18.7283 C   0  0  0  0  0
   -4.5509    5.3106  -19.6863 O   0  0  0  0  0
   -5.0559    7.6153  -18.6588 O   0  0  0  0  0
   -7.3280    5.2661  -17.5799 O   0  0  0  0  0
   -7.6263    2.5149  -18.5093 O   0  0  0  0  0
   -6.6944    0.7887  -16.7211 O   0  0  0  0  0
   -9.0534    0.3180  -17.6909 O   0  0  0  0  0
   -6.8045   -0.0908  -19.1961 O   0  0  0  0  0
   -5.8039   -2.4415  -20.7797 O   0  0  0  0  0
   -7.0304   -3.9001  -18.4196 O   0  0  0  0  0
   -4.9987   -5.5239  -18.2502 O   0  0  0  0  0
   -6.7784   -5.6259  -20.3665 O   0  0  0  0  0
   -5.9153   -8.2652  -25.4299 O   0  0  0  0  0
   -7.4064   -7.2948  -27.3811 O   0  0  0  0  0
   -6.6871   -9.7932  -27.5889 O   0  0  0  0  0
   -8.5912   -8.9411  -25.7107 O   0  0  0  0  0
   -9.4644  -13.4497  -27.0556 O   0  0  0  0  0
  -10.7428  -13.5104  -29.3548 O   0  0  0  0  0
   -8.5683  -14.9536  -29.1872 O   0  0  0  0  0
  -10.9012  -15.6721  -27.8961 O   0  0  0  0  0
   -9.3513  -12.2041  -24.5607 O   0  0  0  0  0
  -11.0737   -9.7138  -25.8530 O   0  0  0  0  0
   -5.2123   -7.6260  -22.7556 O   0  0  0  0  0
   -8.0542   -5.6351  -22.5983 O   0  0  0  0  0
   -3.6636   -0.5589  -20.2767 O   0  0  0  0  0
   -6.7866    0.2111  -21.7764 O   0  0  0  0  0
   -7.0342    7.0590  -16.0979 N   0  0  0  0  0
   -7.7518    8.3452  -14.3820 N   0  0  0  0  0
   -7.2664    7.6739  -11.5087 N   0  0  0  0  0
   -6.1556    5.7154  -12.4095 N   0  0  0  0  0
   -5.9933    5.3419  -14.7545 N   0  0  0  0  0
   -7.1696  -11.3792  -24.3255 N   0  0  0  0  0
   -5.0828  -12.2014  -24.6403 N   0  0  0  0  0
   -2.8936  -11.9450  -22.6133 N   0  0  0  0  0
   -4.5906  -10.8221  -21.2969 N   0  0  0  0  0
   -6.8026  -10.4828  -22.1109 N   0  0  0  0  0
   -3.8988   -7.0196  -20.9080 N   0  0  0  0  0
   -1.7514   -6.3808  -20.5982 N   0  0  0  0  0
   -0.0228   -7.4535  -18.4080 N   0  0  0  0  0
   -1.9901   -8.7394  -17.8212 N   0  0  0  0  0
   -4.0153   -8.5681  -19.0560 N   0  0  0  0  0
   -3.6307    0.8086  -18.3598 N   0  0  0  0  0
   -2.6719    1.7425  -16.5369 N   0  0  0  0  0
   -0.9502    4.1852  -16.6506 N   0  0  0  0  0
   -1.3995    4.0896  -19.0310 N   0  0  0  0  0
   -2.7716    2.3915  -19.9792 N   0  0  0  0  0
   -7.4990    0.8955  -17.9983 P   0  0  0  0  0
   -5.9894   -4.6002  -19.2628 P   0  0  0  0  0
   -7.1641   -8.5403  -26.5504 P   0  0  0  0  0
   -9.9466  -14.3687  -28.3983 P   0  0  0  0  0
  1 45  1  0  0  0
  2  1  1  0  0  0
  2  3  1  0  0  0
  2 44  1  0  0  0
  3 42  1  0  0  0
  3  4  1  0  0  0
  4 43  1  0  0  0
  4  5  1  0  0  0
  5 44  1  0  0  0
  5 67  1  0  0  0
  7 68  1  0  0  0
  8 69  1  0  0  0
  8 70  1  0  0  0
  9 71  1  0  0  0
 10 67  1  0  0  0
 10  7  1  0  0  0
 11 48  1  0  0  0
 11 12  1  0  0  0
 12 13  1  0  0  0
 12 66  1  0  0  0
 13 14  1  0  0  0
 13 65  1  0  0  0
 14 49  1  0  0  0
 15 49  1  0  0  0
 15 88  1  0  0  0
 16 52  1  0  0  0
 16 17  1  0  0  0
 17 18  1  0  0  0
 17 64  1  0  0  0
 18 19  1  0  0  0
 18 63  1  0  0  0
 19 53  1  0  0  0
 20 56  1  0  0  0
 20 21  1  0  0  0
 21 22  1  0  0  0
 21 62  1  0  0  0
 22 23  1  0  0  0
 22 61  1  0  0  0
 23 57  1  0  0  0
 24 61  1  0  0  0
 24 72  1  0  0  0
 24 20  1  0  0  0
 26 73  1  0  0  0
 27 74  1  0  0  0
 27 75  1  0  0  0
 28 76  1  0  0  0
 29 72  1  0  0  0
 29 26  1  0  0  0
 30 63  1  0  0  0
 30 77  1  0  0  0
 30 16  1  0  0  0
 32 78  1  0  0  0
 33 79  1  0  0  0
 33 80  1  0  0  0
 34 81  1  0  0  0
 35 77  1  0  0  0
 35 32  1  0  0  0
 36 65  1  0  0  0
 36 82  1  0  0  0
 36 11  1  0  0  0
 38 83  1  0  0  0
 39 84  1  0  0  0
 39 85  1  0  0  0
 40 86  1  0  0  0
 41 82  1  0  0  0
 41 38  1  0  0  0
 67  6  1  0  0  0
 72 25  1  0  0  0
 77 31  1  0  0  0
 82 37  1  0  0  0
 87 45  1  0  0  0
 87 47  1  0  0  0
 87 48  1  0  0  0
 88 51  1  0  0  0
 88 52  1  0  0  0
 89 53  1  0  0  0
 89 55  1  0  0  0
 89 56  1  0  0  0
 90 57  1  0  0  0
 90 59  1  0  0  0
 90 60  1  0  0  0
  6 68  2  0  0  0
  7  8  2  0  0  0
  9 70  2  0  0  0
 10 71  2  0  0  0
 25 73  2  0  0  0
 26 27  2  0  0  0
 28 75  2  0  0  0
 29 76  2  0  0  0
 31 78  2  0  0  0
 32 33  2  0  0  0
 34 80  2  0  0  0
 35 81  2  0  0  0
 37 83  2  0  0  0
 38 39  2  0  0  0
 40 85  2  0  0  0
 41 86  2  0  0  0
 87 46  2  0  0  0
 88 50  2  0  0  0
 89 54  2  0  0  0
 90 58  2  0  0  0
M  END
> <rmsd>
0.903725386

$$$$
CHEMBL3754796 PubChem-127036252


 68 76  0  0  0  0  0  0  0  0999 V2000
   -3.7797   -8.4920  -19.6297 O   0  0  0  0  0
   -2.8550   -9.3259  -21.7341 O   0  0  0  0  0
   -1.6438   -7.2739  -20.6413 O   0  0  0  0  0
   -5.5172   -4.3445  -20.6483 O   0  0  0  0  0
   -4.9906   -0.7439  -17.4349 O   0  0  0  0  0
   -1.4013    2.1239  -16.0223 O   0  0  0  0  0
    0.5979    3.3720  -14.9143 O   0  0  0  0  0
    0.8655    2.6500  -17.2424 O   0  0  0  0  0
   -2.3414    1.6619  -20.7635 O   0  0  0  0  0
   -1.1933   -2.7738  -22.2807 O   0  0  0  0  0
   -2.9731    3.3733  -22.6076 O   0  0  0  0  0
   -3.1784    2.8033  -24.7843 O   0  0  0  0  0
   -1.8156   -1.5895  -26.2024 O   0  0  0  0  0
   -1.4053   -3.3268  -24.8291 O   0  0  0  0  0
   -7.1257    0.7192  -17.0317 O   0  0  0  0  0
   -9.1789   -0.0173  -17.6222 O   0  0  0  0  0
   -9.5556   -3.5772  -20.8231 O   0  0  0  0  0
   -7.8307   -4.6895  -21.7651 O   0  0  0  0  0
   -2.5073   -8.7323  -20.3973 S   0  0  0  0  0
   -0.0990    3.2132  -16.2362 S   0  0  0  0  0
   -2.2434   -6.0414  -20.9207 C   0  0  0  0  0
   -1.4521   -5.0078  -21.4235 C   0  0  0  0  0
   -2.0022   -3.7496  -21.6910 C   0  0  0  0  0
   -3.3568   -3.5141  -21.4080 C   0  0  0  0  0
   -4.1584   -4.5433  -20.9027 C   0  0  0  0  0
   -6.0571   -3.2470  -19.9638 C   0  0  0  0  0
   -7.4422   -2.9873  -20.0333 C   0  0  0  0  0
   -7.9808   -1.9537  -19.2554 C   0  0  0  0  0
   -7.1851   -1.1757  -18.4087 C   0  0  0  0  0
   -5.8006   -1.4357  -18.3437 C   0  0  0  0  0
   -3.9225    0.0853  -17.7937 C   0  0  0  0  0
   -3.1632    0.6711  -16.7767 C   0  0  0  0  0
   -2.1374    1.5704  -17.0753 C   0  0  0  0  0
   -0.6746    4.7902  -16.7833 C   0  0  0  0  0
   -1.9745    4.9054  -17.2952 C   0  0  0  0  0
   -2.4556    6.1354  -17.7511 C   0  0  0  0  0
   -1.6414    7.2706  -17.6974 C   0  0  0  0  0
   -0.3449    7.1759  -17.1871 C   0  0  0  0  0
    0.1496    5.9324  -16.7300 C   0  0  0  0  0
    2.2277    6.9535  -16.1684 C   0  0  0  0  0
    1.7695    8.1961  -16.6125 C   0  0  0  0  0
    0.4751    8.3044  -17.1248 C   0  0  0  0  0
   -1.8745    1.8920  -18.4133 C   0  0  0  0  0
   -2.6111    1.3007  -19.4416 C   0  0  0  0  0
   -2.2213    0.7472  -21.8159 C   0  0  0  0  0
   -1.8318   -0.5727  -21.5540 C   0  0  0  0  0
   -1.6334   -1.4866  -22.5908 C   0  0  0  0  0
   -1.8387   -1.0868  -23.9271 C   0  0  0  0  0
   -2.2393    0.2313  -24.1830 C   0  0  0  0  0
   -2.4287    1.1585  -23.1509 C   0  0  0  0  0
   -3.6343    0.3918  -19.1315 C   0  0  0  0  0
   -5.2490   -2.4557  -19.1311 C   0  0  0  0  0
   -3.6040   -5.8073  -20.6858 C   0  0  0  0  0
   -1.4784   -9.8490  -19.4999 C   0  0  0  0  0
   -0.7564  -10.8245  -20.1990 C   0  0  0  0  0
    0.0730  -11.7216  -19.5180 C   0  0  0  0  0
    0.1924  -11.6510  -18.1278 C   0  0  0  0  0
   -0.5131  -10.6779  -17.4160 C   0  0  0  0  0
   -1.3492   -9.7636  -18.0991 C   0  0  0  0  0
   -1.9082   -8.7126  -16.0339 C   0  0  0  0  0
   -1.0937   -9.6021  -15.3283 C   0  0  0  0  0
   -0.3933  -10.5905  -16.0256 C   0  0  0  0  0
    1.4183    5.8601  -16.2369 N   0  0  0  0  0
   -2.8454    2.4938  -23.4843 N   0  0  0  0  0
   -1.6628   -1.9918  -25.0320 N   0  0  0  0  0
   -7.8077   -0.1371  -17.6327 N   0  0  0  0  0
   -8.3204   -3.7597  -20.8743 N   0  0  0  0  0
   -2.0172   -8.8098  -17.3895 N   0  0  0  0  0
 19  3  1  0  0  0
 19 54  1  0  0  0
 20  6  1  0  0  0
 20 34  1  0  0  0
 21  3  1  0  0  0
 22 23  1  0  0  0
 23 10  1  0  0  0
 24 25  1  0  0  0
 25  4  1  0  0  0
 26  4  1  0  0  0
 27 28  1  0  0  0
 27 67  1  0  0  0
 29 30  1  0  0  0
 29 66  1  0  0  0
 30  5  1  0  0  0
 31  5  1  0  0  0
 32 33  1  0  0  0
 33  6  1  0  0  0
 35 36  1  0  0  0
 37 38  1  0  0  0
 39 63  1  0  0  0
 39 34  1  0  0  0
 40 41  1  0  0  0
 42 38  1  0  0  0
 43 44  1  0  0  0
 44  9  1  0  0  0
 45  9  1  0  0  0
 46 47  1  0  0  0
 47 10  1  0  0  0
 48 49  1  0  0  0
 48 65  1  0  0  0
 50 64  1  0  0  0
 50 45  1  0  0  0
 51 31  1  0  0  0
 52 26  1  0  0  0
 53 21  1  0  0  0
 55 56  1  0  0  0
 57 58  1  0  0  0
 59 68  1  0  0  0
 59 54  1  0  0  0
 60 61  1  0  0  0
 62 58  1  0  0  0
 64 12  1  0  0  0
 65 14  1  0  0  0
 66 16  1  0  0  0
 67 18  1  0  0  0
 19  1  2  0  0  0
 19  2  2  0  0  0
 20  7  2  0  0  0
 20  8  2  0  0  0
 21 22  2  0  0  0
 23 24  2  0  0  0
 25 53  2  0  0  0
 26 27  2  0  0  0
 28 29  2  0  0  0
 30 52  2  0  0  0
 31 32  2  0  0  0
 33 43  2  0  0  0
 34 35  2  0  0  0
 36 37  2  0  0  0
 38 39  2  0  0  0
 40 63  2  0  0  0
 41 42  2  0  0  0
 44 51  2  0  0  0
 45 46  2  0  0  0
 47 48  2  0  0  0
 49 50  2  0  0  0
 54 55  2  0  0  0
 56 57  2  0  0  0
 58 59  2  0  0  0
 60 68  2  0  0  0
 61 62  2  0  0  0
 64 11  2  0  0  0
 65 13  2  0  0  0
 66 15  2  0  0  0
 67 17  2  0  0  0
M  CHG  8  64   1  12  -1  65   1  14  -1  66   1  16  -1  67   1  18  -1
M  END
> <rmsd>
0.775963664

$$$$
CHEMBL4855021


103109  0  0  0  0  0  0  0  0999 V2000
   -8.8365    1.0820  -14.5582 C   0  0  0  0  0
  -10.0515    0.1849  -14.6962 C   0  0  0  0  0
   -7.7902    0.6941  -15.5518 C   0  0  0  0  0
   -6.3822    1.3958  -17.5751 C   0  0  0  0  0
   -6.8519    0.3725  -18.5757 C   0  0  0  0  0
   -6.3760   -0.9680  -20.6775 C   0  0  0  0  0
   -6.4694   -2.3368  -20.0787 C   0  0  0  0  0
   -7.8285   -4.4517  -19.7893 C   0  0  0  0  0
   -9.2949   -4.8228  -19.6864 C   0  0  0  0  0
   -7.1537   -5.3054  -20.8113 C   0  0  0  0  0
   -5.2298   -6.8344  -21.3727 C   0  0  0  0  0
   -4.5508   -8.0300  -20.7679 C   0  0  0  0  0
   -2.8787   -9.9566  -21.0902 C   0  0  0  0  0
   -3.7691  -11.1603  -20.9955 C   0  0  0  0  0
   -3.9680  -13.6670  -20.7423 C   0  0  0  0  0
   -3.2469  -14.7320  -19.9793 C   0  0  0  0  0
   -4.2207  -14.0972  -22.1857 C   0  0  0  0  0
   -5.3014  -15.1215  -22.2761 C   0  0  0  0  0
   -5.0016  -16.4025  -22.7520 C   0  0  0  0  0
   -6.0113  -17.3634  -22.8623 C   0  0  0  0  0
   -7.3239  -17.0442  -22.5012 C   0  0  0  0  0
   -7.6264  -15.7629  -22.0302 C   0  0  0  0  0
   -6.6178  -14.8011  -21.9203 C   0  0  0  0  0
   -2.1536   -9.6976  -19.7756 C   0  0  0  0  0
   -1.0488   -8.6738  -19.9761 C   0  0  0  0  0
   -0.4400   -8.2739  -18.6429 C   0  0  0  0  0
   -1.2843   -7.2158  -17.9483 C   0  0  0  0  0
   -4.2027   -5.8217  -21.8560 C   0  0  0  0  0
   -3.7749   -6.1482  -23.2755 C   0  0  0  0  0
   -2.6596   -5.2150  -23.7188 C   0  0  0  0  0
   -0.6816   -6.7207  -23.1694 C   0  0  0  0  0
   -5.3534   -0.9458  -21.8026 C   0  0  0  0  0
   -5.8920   -1.6649  -23.0285 C   0  0  0  0  0
   -4.8434   -1.6911  -24.1309 C   0  0  0  0  0
   -4.6825   -0.3206  -24.7722 C   0  0  0  0  0
   -5.0416    1.0243  -16.9436 C   0  0  0  0  0
   -3.8978    1.3963  -17.8287 C   0  0  0  0  0
   -3.6574    2.7376  -18.1552 C   0  0  0  0  0
   -2.5808    3.0768  -18.9800 C   0  0  0  0  0
   -1.7392    2.0762  -19.4776 C   0  0  0  0  0
   -1.9724    0.7374  -19.1471 C   0  0  0  0  0
   -3.0490    0.3980  -18.3217 C   0  0  0  0  0
   -7.5508    2.2036  -12.9083 C   0  0  0  0  0
   -8.4700    3.3496  -12.6187 C   0  0  0  0  0
   -9.2594    5.6516  -13.3991 C   0  0  0  0  0
   -8.8862    6.8391  -14.0327 C   0  0  0  0  0
   -9.7686    7.9210  -14.0813 C   0  0  0  0  0
  -11.0425    7.8293  -13.4987 C   0  0  0  0  0
  -12.0064    8.9970  -13.5975 C   0  0  0  0  0
  -11.2855   11.1137  -14.2197 C   0  0  0  0  0
  -11.8962   10.5462  -15.3920 C   0  0  0  0  0
  -12.3319    9.2880  -15.0455 C   0  0  0  0  0
  -12.9790    8.4736  -15.9786 C   0  0  0  0  0
  -13.1744    8.9750  -17.2766 C   0  0  0  0  0
  -12.7252   10.2658  -17.6203 C   0  0  0  0  0
  -12.0770   11.0715  -16.6694 C   0  0  0  0  0
  -13.2833    8.7971  -12.8021 C   0  0  0  0  0
  -14.2142    9.8425  -12.6953 C   0  0  0  0  0
  -15.4186    9.6550  -12.0139 C   0  0  0  0  0
  -15.7158    8.4201  -11.4313 C   0  0  0  0  0
  -14.7893    7.3749  -11.5327 C   0  0  0  0  0
  -13.5800    7.5569  -12.2072 C   0  0  0  0  0
  -11.4199    6.6292  -12.8669 C   0  0  0  0  0
  -10.5314    5.5525  -12.8222 C   0  0  0  0  0
  -17.4326    7.0808  -10.0781 C   0  0  0  0  0
  -18.8156    7.0367   -9.5231 C   0  0  0  0  0
  -19.8311    7.0243  -10.6570 C   0  0  0  0  0
  -21.2124    6.6358  -10.1551 C   0  0  0  0  0
  -21.2687    5.1440   -9.8810 C   0  0  0  0  0
  -22.2413    6.9852  -11.2092 C   0  0  0  0  0
   -6.6136    1.9394  -11.7381 C   0  0  0  0  0
   -5.4550    2.9317  -11.7328 C   0  0  0  0  0
   -5.6951    4.1166  -10.8451 C   0  0  0  0  0
   -7.2746   -0.4562  -15.5150 O   0  0  0  0  0
   -8.0013   -0.1393  -18.4770 O   0  0  0  0  0
   -5.4646   -2.8575  -19.5206 O   0  0  0  0  0
   -7.4846   -5.2232  -22.0264 O   0  0  0  0  0
   -4.8250   -8.3933  -19.5910 O   0  0  0  0  0
   -5.0137  -11.0569  -21.1715 O   0  0  0  0  0
   -2.1173  -15.1423  -20.3603 O   0  0  0  0  0
   -3.8180  -15.2557  -18.8283 O   0  0  0  0  0
   -9.3337    3.2508  -11.7043 O   0  0  0  0  0
  -11.3521   10.2035  -13.1711 O   0  0  0  0  0
  -10.7666   12.2573  -14.1340 O   0  0  0  0  0
  -12.6737    6.4994  -12.2703 O   0  0  0  0  0
  -16.6895    6.0712   -9.9465 O   0  0  0  0  0
   -6.7288    4.2031  -10.1289 O   0  0  0  0  0
   -7.3823    1.6477  -16.5396 N   0  0  0  0  0
   -5.9994    0.0090  -19.6653 N   0  0  0  0  0
   -7.7061   -3.0488  -20.1599 N   0  0  0  0  0
   -6.1110   -6.1937  -20.4055 N   0  0  0  0  0
   -3.6016   -8.7683  -21.5493 N   0  0  0  0  0
   -3.1892  -12.4376  -20.7223 N   0  0  0  0  0
   -2.4221   -7.8337  -17.2880 N   0  0  0  0  0
   -1.4218   -5.5077  -23.0040 N   0  0  0  0  0
   -1.0806   -7.6331  -23.9937 N   0  0  0  0  0
    0.5210   -6.9143  -22.4356 N   0  0  0  0  0
   -5.8599    0.0023  -25.5594 N   0  0  0  0  0
   -8.3152    0.9951  -13.1985 N   0  0  0  0  0
   -8.3412    4.5516  -13.3886 N   0  0  0  0  0
  -16.9738    8.2557  -10.7632 N   0  0  0  0  0
  -19.0427    8.1836   -8.6586 N   0  0  0  0  0
   -4.7241    5.1557  -10.7978 N   0  0  0  0  0
  1  2  1  0  0  0
  1  3  1  0  0  0
  1 99  1  0  0  0
  3 88  1  0  0  0
  4 88  1  0  0  0
  4  5  1  0  0  0
  4 36  1  0  0  0
  5 89  1  0  0  0
  6 89  1  0  0  0
  6  7  1  0  0  0
  6 32  1  0  0  0
  7 90  1  0  0  0
  8 90  1  0  0  0
  8  9  1  0  0  0
  8 10  1  0  0  0
 10 91  1  0  0  0
 11 91  1  0  0  0
 11 12  1  0  0  0
 11 28  1  0  0  0
 12 92  1  0  0  0
 13 92  1  0  0  0
 13 14  1  0  0  0
 13 24  1  0  0  0
 14 93  1  0  0  0
 15 93  1  0  0  0
 15 16  1  0  0  0
 15 17  1  0  0  0
 16 81  1  0  0  0
 17 18  1  0  0  0
 19 20  1  0  0  0
 21 22  1  0  0  0
 23 18  1  0  0  0
 24 25  1  0  0  0
 25 26  1  0  0  0
 26 27  1  0  0  0
 27 94  1  0  0  0
 28 29  1  0  0  0
 29 30  1  0  0  0
 30 95  1  0  0  0
 31 97  1  0  0  0
 32 33  1  0  0  0
 33 34  1  0  0  0
 34 35  1  0  0  0
 35 98  1  0  0  0
 36 37  1  0  0  0
 38 39  1  0  0  0
 40 41  1  0  0  0
 42 37  1  0  0  0
 43 99  1  0  0  0
 43 44  1  0  0  0
 43 71  1  0  0  0
 44100  1  0  0  0
 46 47  1  0  0  0
 49 48  1  0  0  0
 49 83  1  0  0  0
 49 57  1  0  0  0
 49 52  1  0  0  0
 50 83  1  0  0  0
 50 51  1  0  0  0
 52 53  1  0  0  0
 54 55  1  0  0  0
 56 51  1  0  0  0
 58 59  1  0  0  0
 60 61  1  0  0  0
 60101  1  0  0  0
 62 85  1  0  0  0
 62 57  1  0  0  0
 63 85  1  0  0  0
 63 48  1  0  0  0
 64 45  1  0  0  0
 66 65  1  0  0  0
 66102  1  0  0  0
 66 67  1  0  0  0
 67 68  1  0  0  0
 68 69  1  0  0  0
 68 70  1  0  0  0
 71 72  1  0  0  0
 72 73  1  0  0  0
 73103  1  0  0  0
 95 31  1  0  0  0
100 45  1  0  0  0
101 65  1  0  0  0
  3 74  2  0  0  0
  5 75  2  0  0  0
  7 76  2  0  0  0
 10 77  2  0  0  0
 12 78  2  0  0  0
 14 79  2  0  0  0
 16 80  2  0  0  0
 18 19  2  0  0  0
 20 21  2  0  0  0
 22 23  2  0  0  0
 31 96  2  0  0  0
 37 38  2  0  0  0
 39 40  2  0  0  0
 41 42  2  0  0  0
 44 82  2  0  0  0
 45 46  2  0  0  0
 47 48  2  0  0  0
 50 84  2  0  0  0
 51 52  2  0  0  0
 53 54  2  0  0  0
 55 56  2  0  0  0
 57 58  2  0  0  0
 59 60  2  0  0  0
 61 62  2  0  0  0
 63 64  2  0  0  0
 65 86  2  0  0  0
 73 87  2  0  0  0
M  END
> <rmsd>
0.720377207

$$$$
CHEMBL2371981


 52 54  0  0  0  0  0  0  0  0999 V2000
   -9.2551  -10.2981  -16.5694 N   0  0  0  0  0
  -11.5034   -9.7662  -16.1706 N   0  0  0  0  0
  -10.4614   -9.3422  -18.3727 N   0  0  0  0  0
   -6.5722   -8.6982  -19.8553 N   0  0  0  0  0
   -5.2480  -10.7734  -18.4038 N   0  0  0  0  0
   -4.7187  -13.9140  -18.7681 N   0  0  0  0  0
   -7.8804   -6.1194  -19.4580 N   0  0  0  0  0
   -6.2056   -4.4294  -17.4123 N   0  0  0  0  0
   -5.4186   -1.4040  -17.5096 N   0  0  0  0  0
   -1.8216    0.8211  -19.3486 N   0  0  0  0  0
  -10.3718   -9.8422  -17.0336 C   0  0  0  0  0
   -9.3811   -9.5010  -19.3400 C   0  0  0  0  0
   -9.5734   -8.5362  -20.4833 C   0  0  0  0  0
   -8.4230   -8.6351  -21.4796 C   0  0  0  0  0
   -7.1150   -7.9803  -21.0043 C   0  0  0  0  0
   -5.2317   -8.5399  -19.3769 C   0  0  0  0  0
   -4.7654   -9.4059  -18.2324 C   0  0  0  0  0
   -3.2453   -9.4060  -18.0436 C   0  0  0  0  0
   -4.8963  -11.6163  -19.5109 C   0  0  0  0  0
   -5.4514  -12.9973  -19.6207 C   0  0  0  0  0
   -6.9304  -13.0645  -19.2332 C   0  0  0  0  0
   -5.5788  -14.8529  -18.1540 C   0  0  0  0  0
   -7.2980   -6.5241  -20.7002 C   0  0  0  0  0
   -8.0720   -4.7223  -19.0909 C   0  0  0  0  0
   -6.7730   -4.1113  -18.6893 C   0  0  0  0  0
   -5.0016   -3.8226  -16.8496 C   0  0  0  0  0
   -3.8046   -4.0034  -17.7793 C   0  0  0  0  0
   -2.5290   -3.6193  -17.1079 C   0  0  0  0  0
   -5.2454   -2.3887  -16.4858 C   0  0  0  0  0
   -5.7906   -0.0265  -17.2187 C   0  0  0  0  0
   -5.3961    0.8702  -18.3831 C   0  0  0  0  0
   -3.9093    0.9755  -18.5000 C   0  0  0  0  0
   -3.1353    0.5626  -19.5774 C   0  0  0  0  0
   -1.7822    1.3894  -18.1350 C   0  0  0  0  0
   -0.6438    1.8429  -17.4654 C   0  0  0  0  0
   -0.8232    2.4182  -16.1991 C   0  0  0  0  0
   -2.1161    2.5282  -15.6338 C   0  0  0  0  0
   -3.2463    2.0655  -16.3305 C   0  0  0  0  0
   -3.0346    1.5011  -17.5863 C   0  0  0  0  0
   -7.2622    0.0624  -16.9846 C   0  0  0  0  0
   -4.4630   -7.6863  -19.9033 O   0  0  0  0  0
   -2.8103   -8.1481  -17.6136 O   0  0  0  0  0
   -4.0812  -11.2192  -20.3822 O   0  0  0  0  0
   -5.1517  -15.6880  -17.3163 O   0  0  0  0  0
   -6.9595   -5.6656  -21.5537 O   0  0  0  0  0
   -6.1701   -3.3502  -19.4944 O   0  0  0  0  0
   -1.8548   -2.6529  -17.5490 O   0  0  0  0  0
   -2.0774   -4.3287  -16.0047 O   0  0  0  0  0
   -5.2936   -2.0612  -15.2700 O   0  0  0  0  0
   -7.6980    0.5539  -15.9134 O   0  0  0  0  0
   -8.1548   -0.4136  -17.9363 O   0  0  0  0  0
   -7.2989  -14.7340  -18.6058 S   0  0  0  0  0
  4 16  1  0  0  0
  5 19  1  0  0  0
 10 34  1  0  0  0
 11  2  1  0  0  0
 11  3  1  0  0  0
 12  3  1  0  0  0
 12 13  1  0  0  0
 13 14  1  0  0  0
 15 14  1  0  0  0
 15  4  1  0  0  0
 15 23  1  0  0  0
 17 16  1  0  0  0
 17 18  1  0  0  0
 17  5  1  0  0  0
 18 42  1  0  0  0
 20 19  1  0  0  0
 20 21  1  0  0  0
 20  6  1  0  0  0
 21 52  1  0  0  0
 22 52  1  0  0  0
 22  6  1  0  0  0
 23  7  1  0  0  0
 24  7  1  0  0  0
 24 25  1  0  0  0
 25  8  1  0  0  0
 26  8  1  0  0  0
 26 27  1  0  0  0
 26 29  1  0  0  0
 27 28  1  0  0  0
 28 48  1  0  0  0
 29  9  1  0  0  0
 30  9  1  0  0  0
 30 31  1  0  0  0
 30 40  1  0  0  0
 31 32  1  0  0  0
 33 10  1  0  0  0
 35 36  1  0  0  0
 37 38  1  0  0  0
 39 32  1  0  0  0
 39 34  1  0  0  0
 40 51  1  0  0  0
 11  1  2  0  0  0
 16 41  2  0  0  0
 19 43  2  0  0  0
 22 44  2  0  0  0
 23 45  2  0  0  0
 25 46  2  0  0  0
 28 47  2  0  0  0
 29 49  2  0  0  0
 32 33  2  0  0  0
 34 35  2  0  0  0
 36 37  2  0  0  0
 38 39  2  0  0  0
 40 50  2  0  0  0
M  END
> <rmsd>
0.749106467

$$$$
CHEMBL70844 PubChem-44311274 PubChem-91932901


 47 49  0  0  0  0  0  0  0  0999 V2000
   -0.0006   -3.4507  -15.7491 O   0  0  0  0  0
   -2.8759   -2.9146  -20.4071 O   0  0  0  0  0
   -4.8720   -2.8889  -17.5255 O   0  0  0  0  0
   -6.7554   -2.0442  -16.5263 O   0  0  0  0  0
   -7.7131    0.3567  -16.2723 O   0  0  0  0  0
   -5.7694    0.0579  -17.7303 O   0  0  0  0  0
   -8.0912   -0.7651  -18.5786 O   0  0  0  0  0
   -6.5699   -4.7539  -16.0435 O   0  0  0  0  0
   -7.9138   -5.5476  -13.9671 O   0  0  0  0  0
   -8.5658   -6.4380  -16.1528 O   0  0  0  0  0
   -9.1792   -3.9707  -15.5894 O   0  0  0  0  0
   -6.9931   -5.8205  -19.3395 O   0  0  0  0  0
   -6.2211   -4.0517  -21.1414 O   0  0  0  0  0
   -8.2403   -3.5509  -19.8282 O   0  0  0  0  0
   -8.3804   -5.3730  -21.6550 O   0  0  0  0  0
   -3.8282   -5.5994  -17.8963 O   0  0  0  0  0
   -4.2199   -7.7459  -19.3526 O   0  0  0  0  0
   -2.2983   -7.6959  -17.8423 O   0  0  0  0  0
   -2.1804   -6.2617  -20.0027 O   0  0  0  0  0
   -0.7825   -3.9575  -16.5979 C   0  0  0  0  0
   -2.0869   -3.2936  -16.8839 C   0  0  0  0  0
   -1.0945   -1.6923  -18.5546 C   0  0  0  0  0
   -1.6113   -0.3394  -18.1985 C   0  0  0  0  0
   -1.3555    0.1928  -16.9293 C   0  0  0  0  0
   -1.8634    1.4484  -16.5810 C   0  0  0  0  0
   -2.6309    2.1715  -17.4996 C   0  0  0  0  0
   -2.8909    1.6390  -18.7661 C   0  0  0  0  0
   -2.3839    0.3827  -19.1149 C   0  0  0  0  0
   -3.1166   -3.0230  -19.1756 C   0  0  0  0  0
   -4.4952   -3.4443  -18.7579 C   0  0  0  0  0
   -6.2761   -2.8858  -17.5350 C   0  0  0  0  0
   -6.8195   -4.3113  -17.3467 C   0  0  0  0  0
   -6.1542   -5.2753  -18.3442 C   0  0  0  0  0
   -4.7116   -4.9638  -18.7743 C   0  0  0  0  0
    0.8855   -5.7644  -17.1406 C   0  0  0  0  0
    0.9617   -6.9998  -17.9666 C   0  0  0  0  0
    0.8642   -8.2534  -17.3535 C   0  0  0  0  0
    0.9091   -9.4170  -18.1277 C   0  0  0  0  0
    1.0490   -9.3275  -19.5155 C   0  0  0  0  0
    1.1448   -8.0749  -20.1300 C   0  0  0  0  0
    1.1005   -6.9117  -19.3562 C   0  0  0  0  0
   -2.0853   -2.7120  -18.2235 N   0  0  0  0  0
   -0.4153   -5.1367  -17.3119 N   0  0  0  0  0
   -7.0599   -0.5600  -17.2672 S   0  0  0  0  0
   -8.0677   -5.2205  -15.4251 S   0  0  0  0  0
   -7.4342   -4.6401  -20.4769 S   0  0  0  0  0
   -3.1446   -6.8713  -18.7686 S   0  0  0  0  0
 20 43  1  0  0  0
 21 20  1  0  0  0
 21 42  1  0  0  0
 22 42  1  0  0  0
 22 23  1  0  0  0
 24 25  1  0  0  0
 26 27  1  0  0  0
 28 23  1  0  0  0
 30 29  1  0  0  0
 30  3  1  0  0  0
 31  3  1  0  0  0
 31  4  1  0  0  0
 31 32  1  0  0  0
 32  8  1  0  0  0
 32 33  1  0  0  0
 33 12  1  0  0  0
 33 34  1  0  0  0
 34 16  1  0  0  0
 34 30  1  0  0  0
 35 43  1  0  0  0
 35 36  1  0  0  0
 37 38  1  0  0  0
 39 40  1  0  0  0
 41 36  1  0  0  0
 42 29  1  0  0  0
 44  4  1  0  0  0
 44  7  1  0  0  0
 45  8  1  0  0  0
 45 11  1  0  0  0
 46 12  1  0  0  0
 46 15  1  0  0  0
 47 16  1  0  0  0
 47 19  1  0  0  0
 20  1  2  0  0  0
 23 24  2  0  0  0
 25 26  2  0  0  0
 27 28  2  0  0  0
 29  2  2  0  0  0
 36 37  2  0  0  0
 38 39  2  0  0  0
 40 41  2  0  0  0
 44  5  2  0  0  0
 44  6  2  0  0  0
 45  9  2  0  0  0
 45 10  2  0  0  0
 46 13  2  0  0  0
 46 14  2  0  0  0
 47 17  2  0  0  0
 47 18  2  0  0  0
M  CHG  4   7  -1  11  -1  15  -1  19  -1
M  END
> <rmsd>
0.651346862

$$$$
CHEMBL2304369 PubChem-71719104


105117  0  0  0  0  0  0  0  0999 V2000
   -2.1000   -0.0237  -18.6724 C   0  0  0  0  0
   -3.4766    0.0832  -18.8582 C   0  0  0  0  0
   -3.7609    1.4397  -18.7874 C   0  0  0  0  0
   -2.5601    2.0919  -18.6102 C   0  0  0  0  0
    0.5486    2.4102  -18.8578 C   0  0  0  0  0
    1.7213    2.8099  -17.9834 C   0  0  0  0  0
    0.5237    4.4734  -16.5341 C   0  0  0  0  0
    1.6460    6.2660  -16.9402 C   0  0  0  0  0
    2.2097    5.2315  -17.6762 C   0  0  0  0  0
   -2.4866    3.4743  -18.4455 C   0  0  0  0  0
   -3.6895    4.2004  -18.4680 C   0  0  0  0  0
   -4.9258    3.5396  -18.6100 C   0  0  0  0  0
   -4.9735    2.1401  -18.7781 C   0  0  0  0  0
   -6.2743    1.4389  -18.6492 C   0  0  0  0  0
   -6.9941   -0.1162  -16.8418 C   0  0  0  0  0
   -7.4843   -1.1793  -17.7973 C   0  0  0  0  0
   -6.3517   -1.8873  -18.5712 C   0  0  0  0  0
   -6.5354   -3.4112  -18.7743 C   0  0  0  0  0
   -5.6556   -4.2526  -17.9009 C   0  0  0  0  0
   -3.9544   -5.6389  -17.4155 C   0  0  0  0  0
   -2.7283   -6.4118  -17.7024 C   0  0  0  0  0
   -1.8015   -4.6828  -19.3105 C   0  0  0  0  0
   -0.9758   -4.6407  -20.5515 C   0  0  0  0  0
    0.7699   -4.9976  -21.9125 C   0  0  0  0  0
    2.0228   -5.6280  -22.3443 C   0  0  0  0  0
    2.1138   -7.0064  -22.6603 C   0  0  0  0  0
    0.9788   -7.9599  -22.5705 C   0  0  0  0  0
   -1.1279   -8.7070  -22.3230 C   0  0  0  0  0
   -2.5876   -8.5889  -22.1929 C   0  0  0  0  0
   -4.6428   -7.1755  -21.8335 C   0  0  0  0  0
   -5.1728   -5.9401  -22.4843 C   0  0  0  0  0
   -7.0614   -5.1435  -24.0214 C   0  0  0  0  0
   -7.5794   -5.2733  -25.2572 C   0  0  0  0  0
   -9.3251   -4.6715  -26.9088 C   0  0  0  0  0
   -7.0244   -6.3051  -26.1955 C   0  0  0  0  0
   -7.6386   -4.1863  -23.0474 C   0  0  0  0  0
   -8.4954   -3.5072  -21.0782 C   0  0  0  0  0
   -8.8954   -3.6711  -19.6781 C   0  0  0  0  0
   -8.8885   -2.4043  -21.8341 C   0  0  0  0  0
   -4.9514   -7.2083  -20.3326 C   0  0  0  0  0
   -6.4512   -7.2451  -20.0873 C   0  0  0  0  0
   -0.4881   -9.9528  -22.3453 C   0  0  0  0  0
    3.3523   -7.5023  -23.0743 C   0  0  0  0  0
    4.4712   -6.6815  -23.1468 C   0  0  0  0  0
    4.3602   -5.3305  -22.7740 C   0  0  0  0  0
    5.5300   -4.4195  -22.7162 C   0  0  0  0  0
    6.6389   -2.4785  -22.3934 C   0  0  0  0  0
    6.7758   -1.0386  -22.1360 C   0  0  0  0  0
    5.5618    1.1451  -21.6181 C   0  0  0  0  0
    6.4636    1.5841  -20.7453 C   0  0  0  0  0
    4.3835    1.9765  -21.9252 C   0  0  0  0  0
    7.7517   -3.3171  -22.5187 C   0  0  0  0  0
    0.1274   -4.0342  -22.6865 C   0  0  0  0  0
   -1.2512   -3.7052  -18.2931 C   0  0  0  0  0
   -1.3261   -1.2776  -18.6603 C   0  0  0  0  0
   -4.6186   -5.7127  -16.1896 C   0  0  0  0  0
   -4.4194   -1.0235  -19.2378 C   0  0  0  0  0
   -9.5560   -0.2289  -18.0422 C   0  0  0  0  0
  -10.3037    0.7528  -18.9343 C   0  0  0  0  0
  -11.5269    1.3115  -18.2125 C   0  0  0  0  0
  -12.3651    0.1552  -17.5958 C   0  0  0  0  0
  -11.4292   -0.8537  -16.8689 C   0  0  0  0  0
  -10.9122   -0.3658  -15.5106 C   0  0  0  0  0
  -14.0968   -0.4752  -16.0331 C   0  0  0  0  0
  -14.5148    1.2060  -17.5492 C   0  0  0  0  0
  -12.3207    2.0804  -19.2551 C   0  0  0  0  0
   -1.5497    1.2064  -18.5520 N   0  0  0  0  0
    1.4950    4.1260  -17.4075 N   0  0  0  0  0
    0.5944    5.7832  -16.2283 N   0  0  0  0  0
   -4.5327   -4.8393  -18.3549 N   0  0  0  0  0
   -1.8192   -6.0197  -18.7404 N   0  0  0  0  0
    0.1715   -5.3199  -20.7298 N   0  0  0  0  0
   -0.3228   -7.6147  -22.4467 N   0  0  0  0  0
   -3.2105   -7.3058  -22.0785 N   0  0  0  0  0
   -6.0472   -6.0741  -23.6045 N   0  0  0  0  0
   -7.8067   -4.4804  -21.7408 N   0  0  0  0  0
   -7.9262   -3.8356  -18.6424 N   0  0  0  0  0
    5.4225   -3.0875  -22.4917 N   0  0  0  0  0
    5.6028   -0.2116  -22.0961 N   0  0  0  0  0
    3.3385    1.4609  -22.7488 N   0  0  0  0  0
    3.1398   -4.8503  -22.4075 N   0  0  0  0  0
  -13.4584    0.6457  -16.7215 N   0  0  0  0  0
   -0.2574    1.4705  -18.1550 O   0  0  0  0  0
   -6.4665    1.1029  -17.2788 O   0  0  0  0  0
   -7.0579   -0.3376  -15.6047 O   0  0  0  0  0
   -2.4779   -7.4481  -17.0356 O   0  0  0  0  0
   -3.2976   -9.6324  -22.1532 O   0  0  0  0  0
   -4.8240   -4.7957  -22.0647 O   0  0  0  0  0
   -8.6508   -4.4775  -25.6695 O   0  0  0  0  0
  -10.1193   -3.6806  -19.3849 O   0  0  0  0  0
   -4.3779   -8.3303  -19.7391 O   0  0  0  0  0
    7.9236   -0.5389  -21.9599 O   0  0  0  0  0
    4.2851    3.1492  -21.4687 O   0  0  0  0  0
    5.6698   -7.2240  -23.5932 O   0  0  0  0  0
   -1.9651   -2.4835  -18.3856 O   0  0  0  0  0
   -0.0844   -1.2474  -18.8877 O   0  0  0  0  0
   -5.0669   -1.5476  -18.1144 O   0  0  0  0  0
   -8.4126   -0.6714  -18.7299 O   0  0  0  0  0
  -10.3898   -1.3220  -17.7090 O   0  0  0  0  0
  -11.1183    2.2028  -17.2161 O   0  0  0  0  0
   -8.3256   -2.6858  -23.3956 S   0  0  0  0  0
    1.1464   -9.6364  -22.5313 S   0  0  0  0  0
    7.1471   -4.8651  -22.7610 S   0  0  0  0  0
   -1.2567   -3.5943  -21.8320 S   0  0  0  0  0
   -5.9721   -4.7145  -16.3185 S   0  0  0  0  0
  2  3  1  0  0  0
  3  4  1  0  0  0
  4 67  1  0  0  0
  5 83  1  0  0  0
  5  6  1  0  0  0
  6 68  1  0  0  0
  8 69  1  0  0  0
  9 68  1  0  0  0
 10 11  1  0  0  0
 12 13  1  0  0  0
 14 13  1  0  0  0
 14 84  1  0  0  0
 15 84  1  0  0  0
 16 15  1  0  0  0
 16 17  1  0  0  0
 16 98  1  0  0  0
 17 18  1  0  0  0
 17 97  1  0  0  0
 18 19  1  0  0  0
 18 77  1  0  0  0
 19105  1  0  0  0
 20 70  1  0  0  0
 20 21  1  0  0  0
 21 71  1  0  0  0
 22 71  1  0  0  0
 22 23  1  0  0  0
 22 54  1  0  0  0
 23104  1  0  0  0
 24 72  1  0  0  0
 24 25  1  0  0  0
 25 81  1  0  0  0
 26 27  1  0  0  0
 26 43  1  0  0  0
 27102  1  0  0  0
 28 73  1  0  0  0
 28 29  1  0  0  0
 29 74  1  0  0  0
 30 74  1  0  0  0
 30 31  1  0  0  0
 30 40  1  0  0  0
 31 75  1  0  0  0
 32 36  1  0  0  0
 33 89  1  0  0  0
 34 89  1  0  0  0
 35 33  1  0  0  0
 36101  1  0  0  0
 37 76  1  0  0  0
 37 38  1  0  0  0
 38 77  1  0  0  0
 39101  1  0  0  0
 40 91  1  0  0  0
 40 41  1  0  0  0
 42102  1  0  0  0
 44 45  1  0  0  0
 44 94  1  0  0  0
 45 46  1  0  0  0
 46103  1  0  0  0
 47 78  1  0  0  0
 47 48  1  0  0  0
 48 79  1  0  0  0
 49 51  1  0  0  0
 51 80  1  0  0  0
 52103  1  0  0  0
 53104  1  0  0  0
 54 95  1  0  0  0
 55 95  1  0  0  0
 55  1  1  0  0  0
 56105  1  0  0  0
 57 97  1  0  0  0
 57  2  1  0  0  0
 58 98  1  0  0  0
 58 59  1  0  0  0
 58 99  1  0  0  0
 59 60  1  0  0  0
 60 61  1  0  0  0
 60100  1  0  0  0
 60 66  1  0  0  0
 61 62  1  0  0  0
 61 82  1  0  0  0
 62 99  1  0  0  0
 62 63  1  0  0  0
 64 82  1  0  0  0
 65 82  1  0  0  0
 67 83  1  0  0  0
 67  1  1  0  0  0
 68  7  1  0  0  0
 75 32  1  0  0  0
 79 49  1  0  0  0
  1  2  2  0  0  0
  4 10  2  0  0  0
  7 69  2  0  0  0
  8  9  2  0  0  0
 11 12  2  0  0  0
 13  3  2  0  0  0
 15 85  2  0  0  0
 19 70  2  0  0  0
 20 56  2  0  0  0
 21 86  2  0  0  0
 23 72  2  0  0  0
 24 53  2  0  0  0
 25 26  2  0  0  0
 27 73  2  0  0  0
 28 42  2  0  0  0
 29 87  2  0  0  0
 31 88  2  0  0  0
 32 33  2  0  0  0
 36 76  2  0  0  0
 37 39  2  0  0  0
 38 90  2  0  0  0
 43 44  2  0  0  0
 45 81  2  0  0  0
 46 78  2  0  0  0
 47 52  2  0  0  0
 48 92  2  0  0  0
 49 50  2  0  0  0
 51 93  2  0  0  0
 55 96  2  0  0  0
M  END
> <rmsd>
0.716108441

$$$$
CHEMBL1269450 PubChem-52944270


 60 63  0  0  0  0  0  0  0  0999 V2000
   -7.8363   -4.2435  -16.3767 C   0  0  0  0  0
   -8.5129   -3.7591  -17.6467 C   0  0  0  0  0
   -7.4969   -3.1413  -18.6127 C   0  0  0  0  0
   -7.8627   -4.6604  -20.5611 C   0  0  0  0  0
   -7.3791   -5.8883  -19.8296 C   0  0  0  0  0
   -8.5779   -6.5917  -19.2112 C   0  0  0  0  0
   -6.6095   -6.8294  -20.7751 C   0  0  0  0  0
   -7.3314   -8.9372  -21.0293 C   0  0  0  0  0
   -7.5808  -10.2763  -20.3074 C   0  0  0  0  0
   -7.6655  -11.4676  -21.2755 C   0  0  0  0  0
   -6.2302  -11.9293  -21.5551 C   0  0  0  0  0
   -8.5301  -13.6164  -21.4630 C   0  0  0  0  0
   -8.3505  -11.0183  -22.6023 C   0  0  0  0  0
   -7.8484   -9.6494  -23.1034 C   0  0  0  0  0
   -7.3817   -9.7750  -24.5468 C   0  0  0  0  0
   -5.2528   -6.2540  -21.2189 C   0  0  0  0  0
   -4.7775   -6.9155  -22.4979 C   0  0  0  0  0
   -4.1040   -6.2438  -20.1852 C   0  0  0  0  0
   -3.0269   -8.1309  -19.6741 C   0  0  0  0  0
   -2.3616  -10.1630  -20.4118 C   0  0  0  0  0
   -2.8205  -11.5429  -20.8388 C   0  0  0  0  0
   -1.1996  -10.2980  -19.4279 C   0  0  0  0  0
   -0.7441   -8.8882  -19.0128 C   0  0  0  0  0
    0.1753   -9.8694  -16.9669 C   0  0  0  0  0
    1.6412   -8.9414  -18.6845 C   0  0  0  0  0
    1.9901  -10.3477  -19.1644 C   0  0  0  0  0
    2.7436   -8.3995  -17.7935 C   0  0  0  0  0
   -1.9277   -8.0006  -18.6098 C   0  0  0  0  0
   -3.9063   -4.9201  -19.4231 C   0  0  0  0  0
   -4.0762   -3.7513  -20.3888 C   0  0  0  0  0
   -4.9188   -4.8173  -18.2670 C   0  0  0  0  0
   -4.6350   -3.7893  -17.1609 C   0  0  0  0  0
   -3.5864   -4.2813  -16.1664 C   0  0  0  0  0
   -4.4006   -2.3579  -17.6774 C   0  0  0  0  0
   -2.8356   -1.3098  -18.8892 C   0  0  0  0  0
   -2.4538    0.0931  -18.5632 C   0  0  0  0  0
   -1.2701    0.3620  -17.8689 C   0  0  0  0  0
   -0.9368    1.6873  -17.5806 C   0  0  0  0  0
   -2.9084    2.4582  -18.6597 C   0  0  0  0  0
   -3.2793    1.1466  -18.9646 C   0  0  0  0  0
   -5.1769   -1.2910  -16.8846 C   0  0  0  0  0
   -4.7280   -1.2309  -15.4308 C   0  0  0  0  0
   -6.7209   -1.3561  -16.9775 C   0  0  0  0  0
   -7.3457   -1.6235  -18.3805 C   0  0  0  0  0
   -6.4989   -0.9992  -19.4884 C   0  0  0  0  0
   -7.9051   -3.3973  -19.9575 O   0  0  0  0  0
   -8.2924   -4.7733  -21.7381 O   0  0  0  0  0
   -6.4753   -8.1324  -20.2631 O   0  0  0  0  0
   -8.3943  -12.4955  -20.6172 O   0  0  0  0  0
   -9.7370  -10.9478  -22.4259 O   0  0  0  0  0
   -6.7943   -9.1501  -22.3123 O   0  0  0  0  0
   -4.1293   -7.3482  -19.3203 O   0  0  0  0  0
   -3.4281   -9.4770  -19.8016 O   0  0  0  0  0
   -2.4229   -8.3662  -17.3512 O   0  0  0  0  0
   -2.6011   -4.8937  -18.9189 O   0  0  0  0  0
   -3.0319   -2.0423  -17.7131 O   0  0  0  0  0
   -7.2614   -0.1925  -16.4155 O   0  0  0  0  0
   -8.6187   -1.0381  -18.4499 O   0  0  0  0  0
    0.3345   -8.8528  -18.0116 N   0  0  0  0  0
   -1.7555    2.6996  -17.9783 N   0  0  0  0  0
  1  2  1  0  0  0
  3  2  1  0  0  0
  3 46  1  0  0  0
  4 46  1  0  0  0
  5  4  1  0  0  0
  5  6  1  0  0  0
  5  7  1  0  0  0
  7 48  1  0  0  0
  7 16  1  0  0  0
  8 48  1  0  0  0
  8  9  1  0  0  0
  8 51  1  0  0  0
  9 10  1  0  0  0
 10 11  1  0  0  0
 10 49  1  0  0  0
 10 13  1  0  0  0
 12 49  1  0  0  0
 13 50  1  0  0  0
 13 14  1  0  0  0
 14 15  1  0  0  0
 14 51  1  0  0  0
 16 17  1  0  0  0
 16 18  1  0  0  0
 18 52  1  0  0  0
 18 29  1  0  0  0
 19 52  1  0  0  0
 19 53  1  0  0  0
 20 53  1  0  0  0
 20 21  1  0  0  0
 20 22  1  0  0  0
 22 23  1  0  0  0
 23 59  1  0  0  0
 23 28  1  0  0  0
 24 59  1  0  0  0
 25 59  1  0  0  0
 25 26  1  0  0  0
 25 27  1  0  0  0
 28 54  1  0  0  0
 28 19  1  0  0  0
 29 30  1  0  0  0
 29 55  1  0  0  0
 29 31  1  0  0  0
 31 32  1  0  0  0
 32 33  1  0  0  0
 32 34  1  0  0  0
 34 56  1  0  0  0
 34 41  1  0  0  0
 35 56  1  0  0  0
 35 36  1  0  0  0
 37 38  1  0  0  0
 39 60  1  0  0  0
 40 36  1  0  0  0
 41 42  1  0  0  0
 41 43  1  0  0  0
 43 57  1  0  0  0
 43 44  1  0  0  0
 44 45  1  0  0  0
 44 58  1  0  0  0
 44  3  1  0  0  0
  4 47  2  0  0  0
 36 37  2  0  0  0
 38 60  2  0  0  0
 39 40  2  0  0  0
M  END
> <rmsd>
0.647704482

$$$$
CHEMBL2151424 PubChem-71451178


 41 43  0  0  0  0  0  0  0  0999 V2000
   -4.3158   -9.0347  -16.9530 O   0  0  0  0  0
   -2.6112   -7.4560  -17.7326 O   0  0  0  0  0
   -5.0803   -6.5962  -17.5251 O   0  0  0  0  0
   -2.9233   -1.1462  -18.6169 O   0  0  0  0  0
   -0.2085    2.6732  -19.7515 O   0  0  0  0  0
    1.0828    4.3578  -18.1978 O   0  0  0  0  0
   -0.7431    5.2433  -19.5788 O   0  0  0  0  0
    1.4878    4.6137  -20.7507 O   0  0  0  0  0
   -3.1294    2.8372  -15.8399 O   0  0  0  0  0
   -3.4073    4.8423  -14.1723 O   0  0  0  0  0
   -3.0440    5.3710  -16.5384 O   0  0  0  0  0
   -1.0240    4.5018  -15.1486 O   0  0  0  0  0
   -5.6744   -0.4790  -17.9798 O   0  0  0  0  0
   -7.4523   -0.2024  -16.0767 O   0  0  0  0  0
   -7.3674   -2.3500  -17.2706 O   0  0  0  0  0
   -8.3547   -0.2961  -18.5055 O   0  0  0  0  0
   -6.2261   -6.4293  -20.0816 O   0  0  0  0  0
   -5.8946   -6.1263  -22.6731 O   0  0  0  0  0
   -8.0306   -5.4076  -21.6995 O   0  0  0  0  0
   -7.5868   -7.9555  -21.9404 O   0  0  0  0  0
   -4.2852   -8.4132  -19.4731 O   0  0  0  0  0
   -4.0384   -7.8971  -17.8939 S   0  0  0  0  0
    0.3919    4.2596  -19.5286 S   0  0  0  0  0
   -2.6803    4.4335  -15.4216 S   0  0  0  0  0
   -7.2159   -0.8604  -17.4079 S   0  0  0  0  0
   -6.9375   -6.4368  -21.6367 S   0  0  0  0  0
   -5.0288   -5.4044  -18.2438 C   0  0  0  0  0
   -4.4262   -4.2844  -17.6621 C   0  0  0  0  0
   -4.3510   -3.0767  -18.3611 C   0  0  0  0  0
   -3.7308   -1.8857  -17.7006 C   0  0  0  0  0
   -4.7719   -0.9799  -17.0317 C   0  0  0  0  0
   -4.0583    0.1838  -16.3372 C   0  0  0  0  0
   -3.0385    0.8505  -17.2256 C   0  0  0  0  0
   -2.6083    2.1577  -16.9478 C   0  0  0  0  0
   -1.6646    2.7630  -17.7903 C   0  0  0  0  0
   -1.1463    2.0819  -18.8999 C   0  0  0  0  0
   -1.5736    0.7794  -19.1649 C   0  0  0  0  0
   -2.5078    0.1583  -18.3331 C   0  0  0  0  0
   -4.9005   -2.9853  -19.6461 C   0  0  0  0  0
   -5.5150   -4.0967  -20.2257 C   0  0  0  0  0
   -5.5897   -5.3126  -19.5288 C   0  0  0  0  0
 22  3  1  0  0  0
 22 21  1  0  0  0
 23  5  1  0  0  0
 23  8  1  0  0  0
 24  9  1  0  0  0
 24 12  1  0  0  0
 25 13  1  0  0  0
 25 16  1  0  0  0
 26 17  1  0  0  0
 26 20  1  0  0  0
 27  3  1  0  0  0
 28 29  1  0  0  0
 30 29  1  0  0  0
 30 31  1  0  0  0
 30  4  1  0  0  0
 31 32  1  0  0  0
 31 13  1  0  0  0
 32 33  1  0  0  0
 34 35  1  0  0  0
 34  9  1  0  0  0
 36 37  1  0  0  0
 36  5  1  0  0  0
 38  4  1  0  0  0
 38 33  1  0  0  0
 39 40  1  0  0  0
 41 17  1  0  0  0
 41 27  1  0  0  0
 22  1  2  0  0  0
 22  2  2  0  0  0
 23  6  2  0  0  0
 23  7  2  0  0  0
 24 10  2  0  0  0
 24 11  2  0  0  0
 25 14  2  0  0  0
 25 15  2  0  0  0
 26 18  2  0  0  0
 26 19  2  0  0  0
 27 28  2  0  0  0
 29 39  2  0  0  0
 33 34  2  0  0  0
 35 36  2  0  0  0
 37 38  2  0  0  0
 40 41  2  0  0  0
M  CHG  5   8  -1  12  -1  16  -1  20  -1  21  -1
M  END
> <rmsd>
0.561288476

$$$$
CHEMBL4102885 PubChem-137657165


 90 97  0  0  0  0  0  0  0  0999 V2000
    2.7942   11.7733  -11.8743 O   0  0  0  0  0
    0.7452   10.1987  -11.5679 O   0  0  0  0  0
    1.9164   10.9854   -9.5555 O   0  0  0  0  0
    0.4144   12.7149  -10.8485 O   0  0  0  0  0
   -2.9654   10.3780   -8.2222 O   0  0  0  0  0
   -3.1005    4.0323  -17.8110 O   0  0  0  0  0
   -5.1322    2.5693  -18.4648 O   0  0  0  0  0
   -2.9342   -0.7773  -18.2178 O   0  0  0  0  0
    0.9941    1.6337  -16.9045 O   0  0  0  0  0
    2.1626   -0.3293  -18.1919 O   0  0  0  0  0
    1.3685   -0.7758  -15.9065 O   0  0  0  0  0
    3.4962    0.6873  -16.2035 O   0  0  0  0  0
   -6.1110   -6.1697  -19.6403 O   0  0  0  0  0
   -8.1259   -5.7733  -21.2868 O   0  0  0  0  0
   -7.8759   -8.0088  -20.2869 O   0  0  0  0  0
   -8.7355   -6.0692  -18.7718 O   0  0  0  0  0
   -3.3492   -5.6800  -18.8521 O   0  0  0  0  0
   -2.4366   -7.9388  -17.8912 O   0  0  0  0  0
   -4.1589   -8.0719  -19.6295 O   0  0  0  0  0
   -4.8756   -7.3395  -17.2243 O   0  0  0  0  0
   -6.3663    0.1972  -19.0111 O   0  0  0  0  0
   -7.7601    2.0508  -17.7458 O   0  0  0  0  0
   -7.3298   -0.0616  -16.5751 O   0  0  0  0  0
   -9.0648   -0.0595  -18.5145 O   0  0  0  0  0
   -4.9932   11.8489   -7.5130 O   0  0  0  0  0
   -3.4371   15.0534   -9.3619 O   0  0  0  0  0
   -6.9171   20.3709   -8.5826 O   0  0  0  0  0
   -7.1830   21.0041  -11.1198 O   0  0  0  0  0
   -5.2599   21.9177   -9.8984 O   0  0  0  0  0
   -7.6078   22.9174   -9.4047 O   0  0  0  0  0
   -7.0707   18.7175   -6.3589 O   0  0  0  0  0
   -5.2340   18.0410   -4.5905 O   0  0  0  0  0
   -5.2927   20.3730   -5.3510 O   0  0  0  0  0
   -7.1443   19.5689   -3.7295 O   0  0  0  0  0
   -6.4102   14.1643   -7.4500 O   0  0  0  0  0
   -7.9971   14.7359   -9.4682 O   0  0  0  0  0
   -9.0203   13.9398   -7.3915 O   0  0  0  0  0
   -7.7626   12.2197   -8.8819 O   0  0  0  0  0
    1.4605   11.3648  -10.9382 S   0  0  0  0  0
    1.9923    0.2488  -16.8171 S   0  0  0  0  0
   -7.7340   -6.5270  -20.0428 S   0  0  0  0  0
   -3.6902   -7.3032  -18.4207 S   0  0  0  0  0
   -7.6255    0.5645  -17.9108 S   0  0  0  0  0
   -6.7123   21.5476   -9.7994 S   0  0  0  0  0
   -6.1326   19.1749   -5.0058 S   0  0  0  0  0
   -7.8395   13.7958   -8.3074 S   0  0  0  0  0
   -0.7942   12.7040  -10.1499 C   0  0  0  0  0
   -1.2674   11.5498   -9.5147 C   0  0  0  0  0
   -2.4923   11.5530   -8.8282 C   0  0  0  0  0
   -2.3175    9.1082   -8.3154 C   0  0  0  0  0
   -2.4465    8.5006   -9.6832 C   0  0  0  0  0
   -3.2667    9.0705  -10.6665 C   0  0  0  0  0
   -3.3321    8.5065  -11.9420 C   0  0  0  0  0
   -2.5892    7.3559  -12.2527 C   0  0  0  0  0
   -2.6124    6.7909  -13.6225 C   0  0  0  0  0
   -3.2284    7.4899  -14.6789 C   0  0  0  0  0
   -3.1929    6.9878  -15.9841 C   0  0  0  0  0
   -2.5436    5.7790  -16.2480 C   0  0  0  0  0
   -1.9374    5.0699  -15.2033 C   0  0  0  0  0
   -1.9737    5.5719  -13.8999 C   0  0  0  0  0
   -2.4554    5.2946  -17.6564 C   0  0  0  0  0
   -2.4144    2.8128  -17.7243 C   0  0  0  0  0
   -3.0797    1.5917  -17.9980 C   0  0  0  0  0
   -4.4374    1.5216  -18.3626 C   0  0  0  0  0
   -5.0174    0.2765  -18.6442 C   0  0  0  0  0
   -4.2151   -0.8882  -18.5687 C   0  0  0  0  0
   -2.3517    0.3806  -17.9349 C   0  0  0  0  0
   -1.0015    0.3913  -17.5798 C   0  0  0  0  0
   -0.3473    1.5941  -17.2881 C   0  0  0  0  0
   -1.0513    2.7935  -17.3767 C   0  0  0  0  0
   -4.7349   -2.2549  -18.8464 C   0  0  0  0  0
   -3.8675   -3.3494  -18.7498 C   0  0  0  0  0
   -4.3047   -4.6593  -18.9796 C   0  0  0  0  0
   -5.6556   -4.8832  -19.3343 C   0  0  0  0  0
   -6.5294   -3.7881  -19.4080 C   0  0  0  0  0
   -6.0749   -2.4931  -19.1692 C   0  0  0  0  0
   -1.7938    6.7718  -11.2534 C   0  0  0  0  0
   -1.7272    7.3396   -9.9771 C   0  0  0  0  0
   -3.2481   12.7503   -8.7636 C   0  0  0  0  0
   -4.4825   12.8464   -8.0907 C   0  0  0  0  0
   -5.1640   14.0691   -8.0716 C   0  0  0  0  0
   -4.5902   15.1849   -8.7137 C   0  0  0  0  0
   -2.7585   13.9127   -9.4071 C   0  0  0  0  0
   -1.5463   13.8758  -10.0936 C   0  0  0  0  0
   -5.2325   16.5130   -8.6928 C   0  0  0  0  0
   -5.8978   16.9717   -7.5489 C   0  0  0  0  0
   -6.4554   18.2546   -7.5182 C   0  0  0  0  0
   -6.3536   19.0915   -8.6349 C   0  0  0  0  0
   -5.6731   18.6395   -9.7717 C   0  0  0  0  0
   -5.1082   17.3626   -9.7972 C   0  0  0  0  0
 39  1  1  0  0  0
 39  4  1  0  0  0
 40  9  1  0  0  0
 40 12  1  0  0  0
 41 13  1  0  0  0
 41 16  1  0  0  0
 42 17  1  0  0  0
 42 20  1  0  0  0
 43 21  1  0  0  0
 43 24  1  0  0  0
 44 27  1  0  0  0
 44 30  1  0  0  0
 45 31  1  0  0  0
 45 34  1  0  0  0
 46 35  1  0  0  0
 46 38  1  0  0  0
 47  4  1  0  0  0
 48 49  1  0  0  0
 49  5  1  0  0  0
 50  5  1  0  0  0
 50 51  1  0  0  0
 52 53  1  0  0  0
 54 55  1  0  0  0
 54 77  1  0  0  0
 56 57  1  0  0  0
 58 59  1  0  0  0
 60 55  1  0  0  0
 61 58  1  0  0  0
 61  6  1  0  0  0
 62  6  1  0  0  0
 63 64  1  0  0  0
 64 65  1  0  0  0
 65 21  1  0  0  0
 66  8  1  0  0  0
 66 71  1  0  0  0
 67  8  1  0  0  0
 67 63  1  0  0  0
 68 69  1  0  0  0
 69  9  1  0  0  0
 70 62  1  0  0  0
 72 73  1  0  0  0
 73 17  1  0  0  0
 74 75  1  0  0  0
 74 13  1  0  0  0
 76 71  1  0  0  0
 78 51  1  0  0  0
 79 80  1  0  0  0
 80 81  1  0  0  0
 81 35  1  0  0  0
 82 26  1  0  0  0
 82 85  1  0  0  0
 83 26  1  0  0  0
 83 79  1  0  0  0
 84 47  1  0  0  0
 86 87  1  0  0  0
 87 31  1  0  0  0
 88 89  1  0  0  0
 88 27  1  0  0  0
 90 85  1  0  0  0
 39  2  2  0  0  0
 39  3  2  0  0  0
 40 10  2  0  0  0
 40 11  2  0  0  0
 41 14  2  0  0  0
 41 15  2  0  0  0
 42 18  2  0  0  0
 42 19  2  0  0  0
 43 22  2  0  0  0
 43 23  2  0  0  0
 44 28  2  0  0  0
 44 29  2  0  0  0
 45 32  2  0  0  0
 45 33  2  0  0  0
 46 36  2  0  0  0
 46 37  2  0  0  0
 47 48  2  0  0  0
 49 79  2  0  0  0
 51 52  2  0  0  0
 53 54  2  0  0  0
 55 56  2  0  0  0
 57 58  2  0  0  0
 59 60  2  0  0  0
 62 63  2  0  0  0
 64  7  2  0  0  0
 65 66  2  0  0  0
 67 68  2  0  0  0
 69 70  2  0  0  0
 71 72  2  0  0  0
 73 74  2  0  0  0
 75 76  2  0  0  0
 77 78  2  0  0  0
 80 25  2  0  0  0
 81 82  2  0  0  0
 83 84  2  0  0  0
 85 86  2  0  0  0
 87 88  2  0  0  0
 89 90  2  0  0  0
M  CHG  8   1  -1  12  -1  16  -1  20  -1  24  -1  30  -1  34  -1  38  -1
M  END
> <rmsd>
0.664695501

$$$$
CHEMBL1276160 PubChem-52941073


 49 53  0  0  0  0  0  0  0  0999 V2000
   -5.2490   -9.4416  -20.5725 N   0  0  0  0  0
   -4.4204    1.4896  -18.1783 N   0  0  0  0  0
   -4.7433  -11.1913  -19.2306 N   0  0  0  0  0
   -2.7321   -8.6579  -17.5339 N   0  0  0  0  0
   -3.9119   -7.7929  -19.4094 N   0  0  0  0  0
   -2.8994  -10.9885  -16.8848 N   0  0  0  0  0
   -5.8816   -8.6516  -21.6202 C   0  0  0  0  0
   -6.9392   -7.7457  -21.0234 C   0  0  0  0  0
   -6.6832   -6.4080  -21.6714 C   0  0  0  0  0
   -5.5566   -6.6754  -22.6399 C   0  0  0  0  0
   -4.5607   -5.5213  -22.6422 C   0  0  0  0  0
   -7.0279   -0.5501  -20.8847 C   0  0  0  0  0
   -7.3274    0.4234  -19.7544 C   0  0  0  0  0
   -5.8678    1.3317  -18.2768 C   0  0  0  0  0
   -3.9304    2.5791  -17.5246 C   0  0  0  0  0
   -2.5473    2.7950  -17.4300 C   0  0  0  0  0
   -2.0179    3.9697  -16.7154 C   0  0  0  0  0
   -1.6812    1.8757  -18.0281 C   0  0  0  0  0
   -2.1977    0.7650  -18.6962 C   0  0  0  0  0
   -3.5793    0.5857  -18.7633 C   0  0  0  0  0
   -1.2859   -0.2067  -19.3464 C   0  0  0  0  0
   -6.3234    0.0385  -17.6456 C   0  0  0  0  0
   -7.5456   -0.3168  -18.4475 C   0  0  0  0  0
   -4.4048   -9.0380  -19.6147 C   0  0  0  0  0
   -4.1007  -10.0837  -18.8185 C   0  0  0  0  0
   -5.4483  -10.7577  -20.3152 C   0  0  0  0  0
   -3.2425   -9.9077  -17.7437 C   0  0  0  0  0
   -3.0620   -7.6084  -18.3542 C   0  0  0  0  0
   -4.9190   -7.8766  -22.2891 O   0  0  0  0  0
   -3.8276   -5.4895  -21.4502 O   0  0  0  0  0
   -3.1232   -3.7431  -19.6539 O   0  0  0  0  0
   -3.9061   -2.7528  -21.9385 O   0  0  0  0  0
   -6.4423   -2.8243  -22.6500 O   0  0  0  0  0
   -5.8340   -1.2335  -20.6346 O   0  0  0  0  0
   -6.2689    1.3459  -19.6244 O   0  0  0  0  0
   -2.7997    4.7750  -16.1406 O   0  0  0  0  0
   -0.6470    4.1982  -16.6614 O   0  0  0  0  0
   -8.7077    0.1680  -17.8424 O   0  0  0  0  0
   -6.6137    0.2242  -16.2937 O   0  0  0  0  0
   -5.1152   -0.6529  -23.2348 O   0  0  0  0  0
   -5.6774   -3.9794  -20.0706 O   0  0  0  0  0
   -7.7991   -5.9289  -22.3620 O   0  0  0  0  0
   -8.2107   -8.2446  -21.3268 O   0  0  0  0  0
  -10.4108   -8.8946  -20.0707 O   0  0  0  0  0
   -8.9800   -7.0106  -18.9588 O   0  0  0  0  0
   -8.1838   -9.6550  -18.9391 O   0  0  0  0  0
   -4.1283   -3.9689  -20.7593 P   0  0  0  0  0
   -5.3652   -1.8992  -22.1218 P   0  0  0  0  0
   -8.9826   -8.4609  -19.8324 P   0  0  0  0  0
  1 24  1  0  0  0
  7  1  1  0  0  0
  7  8  1  0  0  0
  7 29  1  0  0  0
  8  9  1  0  0  0
  8 43  1  0  0  0
  9 10  1  0  0  0
  9 42  1  0  0  0
 10 29  1  0  0  0
 10 11  1  0  0  0
 11 30  1  0  0  0
 12 34  1  0  0  0
 13 12  1  0  0  0
 13 35  1  0  0  0
 14 35  1  0  0  0
 14  2  1  0  0  0
 14 22  1  0  0  0
 15 16  1  0  0  0
 16 17  1  0  0  0
 17 37  1  0  0  0
 18 19  1  0  0  0
 20  2  1  0  0  0
 21 19  1  0  0  0
 22 23  1  0  0  0
 22 39  1  0  0  0
 23 38  1  0  0  0
 23 13  1  0  0  0
 24  5  1  0  0  0
 25  3  1  0  0  0
 25 27  1  0  0  0
 26  1  1  0  0  0
 27  6  1  0  0  0
 28  4  1  0  0  0
 47 30  1  0  0  0
 47 32  1  0  0  0
 47 41  1  0  0  0
 48 32  1  0  0  0
 48 34  1  0  0  0
 48 40  1  0  0  0
 49 43  1  0  0  0
 49 45  1  0  0  0
 49 46  1  0  0  0
  2 15  2  0  0  0
 16 18  2  0  0  0
 17 36  2  0  0  0
 19 20  2  0  0  0
 24 25  2  0  0  0
 26  3  2  0  0  0
 27  4  2  0  0  0
 28  5  2  0  0  0
 47 31  2  0  0  0
 48 33  2  0  0  0
 49 44  2  0  0  0
M  CHG  2   2   1  37  -1
M  END
> <rmsd>
0.820036769

$$$$
CHEMBL314833 PubChem-44322789


 43 46  0  0  0  0  0  0  0  0999 V2000
   -4.2912   -9.2262  -17.4882 C   0  0  0  0  0
   -3.4471   -8.9423  -18.7178 C   0  0  0  0  0
   -2.7582  -10.2388  -19.1167 C   0  0  0  0  0
   -4.6222   -7.8705  -22.0056 C   0  0  0  0  0
   -6.0369   -7.5096  -21.7517 C   0  0  0  0  0
   -7.8097   -6.6328  -20.1630 C   0  0  0  0  0
   -8.0758   -5.2587  -20.6998 C   0  0  0  0  0
   -7.9672   -3.4733  -18.6477 C   0  0  0  0  0
   -8.2806   -2.2208  -19.3819 C   0  0  0  0  0
   -7.4727   -3.4941  -17.3874 C   0  0  0  0  0
   -7.1437   -2.2556  -16.6193 C   0  0  0  0  0
   -5.5647   -0.3021  -16.8335 C   0  0  0  0  0
   -4.3205    0.2728  -17.3913 C   0  0  0  0  0
   -3.4332   -0.5592  -18.0903 C   0  0  0  0  0
   -2.2455   -0.0510  -18.6250 C   0  0  0  0  0
   -1.9342    1.3047  -18.4701 C   0  0  0  0  0
   -2.8109    2.1435  -17.7822 C   0  0  0  0  0
   -3.9962    1.6382  -17.2375 C   0  0  0  0  0
   -7.2572   -4.8016  -16.6634 C   0  0  0  0  0
   -7.9531   -6.0780  -18.8347 C   0  0  0  0  0
   -4.0498   -7.7403  -23.3648 C   0  0  0  0  0
   -2.7623   -8.1916  -23.6861 C   0  0  0  0  0
   -4.0085   -7.1247  -25.5173 C   0  0  0  0  0
   -2.4213   -7.8773  -18.4221 C   0  0  0  0  0
   -4.3153   -8.5066  -19.7600 O   0  0  0  0  0
   -6.8886   -7.5999  -22.6785 O   0  0  0  0  0
   -8.1827   -4.7625  -21.8513 O   0  0  0  0  0
   -8.4165   -2.2426  -20.6327 O   0  0  0  0  0
   -8.4672   -1.0196  -18.7113 O   0  0  0  0  0
   -6.3060    0.3855  -16.0818 O   0  0  0  0  0
   -1.3807   -0.8956  -19.3107 O   0  0  0  0  0
   -0.7592    1.8240  -18.9995 O   0  0  0  0  0
   -1.5636   -7.5686  -19.2926 O   0  0  0  0  0
   -2.4271   -7.1985  -17.2092 O   0  0  0  0  0
   -3.8590   -8.3070  -21.0476 N   0  0  0  0  0
   -6.4389   -7.0250  -20.4679 N   0  0  0  0  0
   -8.1067   -4.7303  -19.3174 N   0  0  0  0  0
   -5.9327   -1.6474  -17.1499 N   0  0  0  0  0
   -4.4716   -6.5515  -26.7318 N   0  0  0  0  0
   -4.7323   -7.1459  -24.3834 N   0  0  0  0  0
   -4.8349    2.4935  -16.5945 F   0  0  0  0  0
   -6.5053   -6.0973  -17.7218 S   0  0  0  0  0
   -2.5042   -7.8257  -25.3122 S   0  0  0  0  0
  1  2  1  0  0  0
  2  3  1  0  0  0
  2 25  1  0  0  0
  2 24  1  0  0  0
  4  5  1  0  0  0
  4 21  1  0  0  0
  5 36  1  0  0  0
  6 36  1  0  0  0
  6  7  1  0  0  0
  7 37  1  0  0  0
  8  9  1  0  0  0
  9 29  1  0  0  0
 11 10  1  0  0  0
 11 38  1  0  0  0
 12 13  1  0  0  0
 14 15  1  0  0  0
 15 31  1  0  0  0
 16 32  1  0  0  0
 16 17  1  0  0  0
 18 41  1  0  0  0
 18 13  1  0  0  0
 19 10  1  0  0  0
 19 42  1  0  0  0
 20 42  1  0  0  0
 20  6  1  0  0  0
 20 37  1  0  0  0
 21 40  1  0  0  0
 22 43  1  0  0  0
 23 43  1  0  0  0
 23 39  1  0  0  0
 24 34  1  0  0  0
 25 35  1  0  0  0
 37  8  1  0  0  0
 38 12  1  0  0  0
  4 35  2  0  0  0
  5 26  2  0  0  0
  7 27  2  0  0  0
  8 10  2  0  0  0
  9 28  2  0  0  0
 12 30  2  0  0  0
 13 14  2  0  0  0
 15 16  2  0  0  0
 17 18  2  0  0  0
 21 22  2  0  0  0
 23 40  2  0  0  0
 24 33  2  0  0  0
M  END
> <rmsd>
0.831028998

$$$$
CHEMBL3310931 PubChem-118706907


 50 55  0  0  0  0  0  0  0  0999 V2000
   -8.1687   -2.1912  -18.5764 C   0  0  0  0  0
   -8.5054   -2.1471  -20.0700 C   0  0  0  0  0
   -9.3488   -3.3527  -20.4988 C   0  0  0  0  0
   -7.8985   -6.5412  -19.7880 C   0  0  0  0  0
   -8.8628   -5.5902  -19.5216 C   0  0  0  0  0
   -7.6734   -7.7952  -19.0163 C   0  0  0  0  0
   -7.0406   -7.0755  -16.6804 C   0  0  0  0  0
   -4.9336   -7.2176  -16.7273 C   0  0  0  0  0
   -2.7197   -7.5563  -17.4305 C   0  0  0  0  0
   -4.5275   -8.0089  -18.9357 C   0  0  0  0  0
   -5.4051   -7.6197  -17.9311 C   0  0  0  0  0
   -2.2283   -8.3687  -19.6960 C   0  0  0  0  0
   -3.1402   -6.7301  -15.1427 C   0  0  0  0  0
   -7.6680   -1.0863  -21.8395 C   0  0  0  0  0
   -6.7539    0.0871  -21.7454 C   0  0  0  0  0
   -5.3777   -0.0639  -21.9550 C   0  0  0  0  0
   -4.5292    1.0427  -21.8494 C   0  0  0  0  0
   -5.0543    2.3001  -21.5340 C   0  0  0  0  0
   -6.4295    2.4527  -21.3302 C   0  0  0  0  0
   -7.2782    1.3472  -21.4383 C   0  0  0  0  0
   -5.4573    0.7050  -17.9341 C   0  0  0  0  0
   -3.9716    0.6210  -18.0996 C   0  0  0  0  0
   -3.1668    1.5621  -17.4486 C   0  0  0  0  0
   -1.7750    1.5081  -17.5753 C   0  0  0  0  0
   -1.1816    0.5087  -18.3520 C   0  0  0  0  0
   -1.9800   -0.4356  -19.0030 C   0  0  0  0  0
   -3.3712   -0.3809  -18.8766 C   0  0  0  0  0
   -8.3387    1.8076  -17.9165 C   0  0  0  0  0
   -8.9123    2.9668  -18.6716 C   0  0  0  0  0
   -8.4939    4.2596  -18.3378 C   0  0  0  0  0
   -9.0065    5.3653  -19.0232 C   0  0  0  0  0
   -9.9421    5.1833  -20.0477 C   0  0  0  0  0
  -10.3657    3.8953  -20.3868 C   0  0  0  0  0
   -9.8527    2.7889  -19.7005 C   0  0  0  0  0
   -8.6050   -4.6003  -20.3921 N   0  0  0  0  0
   -7.5587   -4.9212  -21.1346 N   0  0  0  0  0
   -7.0962   -6.1082  -20.7777 N   0  0  0  0  0
   -6.7460   -7.5438  -17.9199 N   0  0  0  0  0
   -5.9440   -6.8643  -15.9062 N   0  0  0  0  0
   -3.6043   -7.1740  -16.4504 N   0  0  0  0  0
   -3.1816   -7.9697  -18.6649 N   0  0  0  0  0
   -1.4782   -7.5295  -17.1985 O   0  0  0  0  0
   -4.9586   -8.3895  -20.0601 O   0  0  0  0  0
   -7.3498   -2.0287  -20.8545 O   0  0  0  0  0
   -7.4759   -0.6183  -16.4850 O   0  0  0  0  0
   -6.1103   -0.2417  -18.7318 O   0  0  0  0  0
   -8.7740    0.5873  -18.4441 O   0  0  0  0  0
   -7.1815   -3.1437  -18.3127 O   0  0  0  0  0
   -8.6724   -6.7467  -16.1203 Cl  0  0  0  0  0
   -7.6089   -0.5640  -17.9932 P   0  0  0  0  0
  1  2  1  0  0  0
  1 50  1  0  0  0
  1 48  1  0  0  0
  2  3  1  0  0  0
  2 44  1  0  0  0
  3 35  1  0  0  0
  4 37  1  0  0  0
  5 35  1  0  0  0
  6  4  1  0  0  0
  6 38  1  0  0  0
  7 49  1  0  0  0
  8 39  1  0  0  0
  8 40  1  0  0  0
  9 41  1  0  0  0
 10 11  1  0  0  0
 11 38  1  0  0  0
 12 41  1  0  0  0
 13 40  1  0  0  0
 14 44  1  0  0  0
 14 15  1  0  0  0
 16 17  1  0  0  0
 18 19  1  0  0  0
 20 15  1  0  0  0
 21 46  1  0  0  0
 21 22  1  0  0  0
 23 24  1  0  0  0
 25 26  1  0  0  0
 27 22  1  0  0  0
 28 47  1  0  0  0
 28 29  1  0  0  0
 30 31  1  0  0  0
 32 33  1  0  0  0
 34 29  1  0  0  0
 35 36  1  0  0  0
 38  7  1  0  0  0
 40  9  1  0  0  0
 41 10  1  0  0  0
 50 46  1  0  0  0
 50 47  1  0  0  0
  4  5  2  0  0  0
  7 39  2  0  0  0
  9 42  2  0  0  0
 10 43  2  0  0  0
 11  8  2  0  0  0
 15 16  2  0  0  0
 17 18  2  0  0  0
 19 20  2  0  0  0
 22 23  2  0  0  0
 24 25  2  0  0  0
 26 27  2  0  0  0
 29 30  2  0  0  0
 31 32  2  0  0  0
 33 34  2  0  0  0
 36 37  2  0  0  0
 50 45  2  0  0  0
M  END
> <rmsd>
0.816727757

$$$$
CHEMBL4076224 PubChem-137649275


 84 90  0  0  0  0  0  0  0  0999 V2000
   -2.0403   -9.4877  -19.2804 O   0  0  0  0  0
   -2.6307   -7.6456  -17.5620 O   0  0  0  0  0
   -1.4433   -6.9748  -19.6002 O   0  0  0  0  0
   -3.9937   -7.6148  -19.7987 O   0  0  0  0  0
   -7.8492   -4.9436  -20.9840 O   0  0  0  0  0
  -12.4340   -6.9017  -24.9498 O   0  0  0  0  0
  -11.5868   -8.9871  -26.2594 O   0  0  0  0  0
  -14.7285  -11.1448  -25.0280 O   0  0  0  0  0
  -16.5941   -7.5938  -22.4868 O   0  0  0  0  0
  -17.9451   -5.8191  -21.1308 O   0  0  0  0  0
  -15.5017   -5.7207  -21.0063 O   0  0  0  0  0
  -16.6569   -4.9223  -23.1994 O   0  0  0  0  0
  -14.8318  -17.2126  -26.9969 O   0  0  0  0  0
  -13.3508  -18.2555  -25.0756 O   0  0  0  0  0
  -12.7898  -18.8278  -27.3969 O   0  0  0  0  0
  -14.9084  -19.8924  -26.3608 O   0  0  0  0  0
  -12.1173  -16.2115  -27.0303 O   0  0  0  0  0
  -10.3895  -14.7686  -28.3925 O   0  0  0  0  0
   -9.5957  -16.8381  -27.3457 O   0  0  0  0  0
  -10.0621  -14.8021  -25.8176 O   0  0  0  0  0
  -11.8058  -11.5356  -27.1648 O   0  0  0  0  0
  -10.7966  -11.9363  -29.5614 O   0  0  0  0  0
  -12.2009   -9.9594  -29.2177 O   0  0  0  0  0
  -13.3561  -12.2679  -29.3320 O   0  0  0  0  0
   -7.6288   -2.3847  -20.5230 O   0  0  0  0  0
   -3.9826   -2.9024  -18.9395 O   0  0  0  0  0
   -1.2032    2.4537  -16.8771 O   0  0  0  0  0
   -0.2986    4.9007  -16.5988 O   0  0  0  0  0
   -0.3191    3.9425  -18.8559 O   0  0  0  0  0
   -2.5744    4.7043  -17.8142 O   0  0  0  0  0
   -1.0689   -0.0860  -15.8093 O   0  0  0  0  0
   -1.2483   -2.7362  -15.7335 O   0  0  0  0  0
   -2.2095   -1.4351  -13.8790 O   0  0  0  0  0
    0.3887   -1.6183  -14.0379 O   0  0  0  0  0
   -6.3602   -0.1950  -19.5373 O   0  0  0  0  0
   -7.8373    1.7130  -18.5101 O   0  0  0  0  0
   -8.7257   -0.5738  -18.4525 O   0  0  0  0  0
   -6.7817    0.0399  -16.8290 O   0  0  0  0  0
   -2.4908   -7.8879  -19.0330 S   0  0  0  0  0
  -16.6716   -5.9929  -21.9085 S   0  0  0  0  0
  -13.9126  -18.5416  -26.4407 S   0  0  0  0  0
  -10.5046  -15.6571  -27.1883 S   0  0  0  0  0
  -12.0081  -11.4004  -28.8527 S   0  0  0  0  0
   -1.0651    4.0254  -17.5491 S   0  0  0  0  0
   -1.0742   -1.5128  -14.8654 S   0  0  0  0  0
   -7.4816    0.2657  -18.3380 S   0  0  0  0  0
   -4.6120   -6.3608  -19.8377 C   0  0  0  0  0
   -5.8900   -6.2560  -20.3859 C   0  0  0  0  0
   -6.5548   -5.0215  -20.4525 C   0  0  0  0  0
   -8.6106   -6.0926  -21.3435 C   0  0  0  0  0
  -10.0198   -5.6986  -21.6209 C   0  0  0  0  0
  -10.8299   -5.2375  -20.5804 C   0  0  0  0  0
  -12.1430   -4.8521  -20.8568 C   0  0  0  0  0
  -12.6356   -4.9443  -22.1582 C   0  0  0  0  0
  -11.7988   -5.4212  -23.1727 C   0  0  0  0  0
  -12.3116   -5.5374  -24.5668 C   0  0  0  0  0
  -13.4857   -7.7373  -24.5490 C   0  0  0  0  0
  -13.5519   -9.0748  -25.0125 C   0  0  0  0  0
  -12.5875   -9.6488  -25.8668 C   0  0  0  0  0
  -12.7323  -10.9787  -26.2854 C   0  0  0  0  0
  -13.8266  -11.7277  -25.8170 C   0  0  0  0  0
  -14.6387   -9.8866  -24.6178 C   0  0  0  0  0
  -15.6305   -9.3809  -23.7753 C   0  0  0  0  0
  -15.5769   -8.0640  -23.3221 C   0  0  0  0  0
  -14.5063   -7.2499  -23.7129 C   0  0  0  0  0
  -14.0400  -13.1452  -26.1847 C   0  0  0  0  0
  -12.9725  -14.0086  -26.4575 C   0  0  0  0  0
  -13.1925  -15.3677  -26.7405 C   0  0  0  0  0
  -14.5166  -15.8723  -26.7410 C   0  0  0  0  0
  -15.5815  -15.0004  -26.4873 C   0  0  0  0  0
  -15.3451  -13.6541  -26.2045 C   0  0  0  0  0
   -5.9051   -3.8571  -19.9726 C   0  0  0  0  0
   -6.4839   -2.5676  -20.0256 C   0  0  0  0  0
   -5.7805   -1.4680  -19.5156 C   0  0  0  0  0
   -4.4963   -1.6763  -18.9713 C   0  0  0  0  0
   -4.6137   -3.9704  -19.4104 C   0  0  0  0  0
   -3.9818   -5.2117  -19.3479 C   0  0  0  0  0
   -3.6859   -0.5767  -18.4180 C   0  0  0  0  0
   -2.8091   -0.8376  -17.3624 C   0  0  0  0  0
   -1.9695    0.1657  -16.8542 C   0  0  0  0  0
   -2.0148    1.4499  -17.4175 C   0  0  0  0  0
   -2.8770    1.7065  -18.4908 C   0  0  0  0  0
   -3.7035    0.6986  -18.9921 C   0  0  0  0  0
  -10.5154   -5.7756  -22.8863 N   0  0  0  0  0
 39  1  1  0  0  0
 39  4  1  0  0  0
 40  9  1  0  0  0
 40 12  1  0  0  0
 41 13  1  0  0  0
 41 16  1  0  0  0
 42 17  1  0  0  0
 42 20  1  0  0  0
 43 21  1  0  0  0
 43 24  1  0  0  0
 44 27  1  0  0  0
 44 30  1  0  0  0
 45 31  1  0  0  0
 45 34  1  0  0  0
 46 35  1  0  0  0
 46 38  1  0  0  0
 47  4  1  0  0  0
 48 49  1  0  0  0
 49  5  1  0  0  0
 50  5  1  0  0  0
 50 51  1  0  0  0
 51 84  1  0  0  0
 52 53  1  0  0  0
 54 55  1  0  0  0
 56 55  1  0  0  0
 56  6  1  0  0  0
 57  6  1  0  0  0
 58 59  1  0  0  0
 59 60  1  0  0  0
 60 21  1  0  0  0
 61  8  1  0  0  0
 61 66  1  0  0  0
 62  8  1  0  0  0
 62 58  1  0  0  0
 63 64  1  0  0  0
 64  9  1  0  0  0
 65 57  1  0  0  0
 67 68  1  0  0  0
 68 17  1  0  0  0
 69 70  1  0  0  0
 69 13  1  0  0  0
 71 66  1  0  0  0
 72 73  1  0  0  0
 73 74  1  0  0  0
 74 35  1  0  0  0
 75 26  1  0  0  0
 75 78  1  0  0  0
 76 26  1  0  0  0
 76 72  1  0  0  0
 77 47  1  0  0  0
 79 80  1  0  0  0
 80 31  1  0  0  0
 81 82  1  0  0  0
 81 27  1  0  0  0
 83 78  1  0  0  0
 39  2  2  0  0  0
 39  3  2  0  0  0
 40 10  2  0  0  0
 40 11  2  0  0  0
 41 14  2  0  0  0
 41 15  2  0  0  0
 42 18  2  0  0  0
 42 19  2  0  0  0
 43 22  2  0  0  0
 43 23  2  0  0  0
 44 28  2  0  0  0
 44 29  2  0  0  0
 45 32  2  0  0  0
 45 33  2  0  0  0
 46 36  2  0  0  0
 46 37  2  0  0  0
 47 48  2  0  0  0
 49 72  2  0  0  0
 51 52  2  0  0  0
 53 54  2  0  0  0
 55 84  2  0  0  0
 57 58  2  0  0  0
 59  7  2  0  0  0
 60 61  2  0  0  0
 62 63  2  0  0  0
 64 65  2  0  0  0
 66 67  2  0  0  0
 68 69  2  0  0  0
 70 71  2  0  0  0
 73 25  2  0  0  0
 74 75  2  0  0  0
 76 77  2  0  0  0
 78 79  2  0  0  0
 80 81  2  0  0  0
 82 83  2  0  0  0
M  CHG  8   1  -1  12  -1  16  -1  20  -1  24  -1  30  -1  34  -1  38  -1
M  END
> <rmsd>
0.78439182

$$$$
CHEMBL1161411 NSC676012 PubChem-385084 PubChem-54600874 PubChem-6331403


 42 44  0  0  0  0  0  0  0  0999 V2000
   -3.2121   -5.6297  -18.5227 C   0  0  0  0  0
   -3.2913   -4.2641  -18.2462 C   0  0  0  0  0
   -4.4278   -3.5299  -18.6063 C   0  0  0  0  0
   -5.4824   -4.1718  -19.2894 C   0  0  0  0  0
   -5.3930   -5.5472  -19.5551 C   0  0  0  0  0
   -4.2683   -6.2813  -19.1726 C   0  0  0  0  0
   -4.4617   -2.0870  -18.2940 C   0  0  0  0  0
   -5.5482   -1.5051  -17.6106 C   0  0  0  0  0
   -5.5119   -0.1150  -17.3610 C   0  0  0  0  0
   -4.4042    0.6444  -17.7976 C   0  0  0  0  0
   -4.2941    2.0438  -17.5945 C   0  0  0  0  0
   -3.1491    2.7162  -18.0493 C   0  0  0  0  0
   -2.1186    2.0357  -18.6958 C   0  0  0  0  0
   -2.2289    0.6564  -18.8963 C   0  0  0  0  0
   -3.3558   -0.0380  -18.4561 C   0  0  0  0  0
   -4.2267   -7.6492  -19.4565 O   0  0  0  0  0
   -1.6655   -8.1722  -19.7430 O   0  0  0  0  0
   -3.2018  -10.0630  -19.4719 O   0  0  0  0  0
   -2.6639   -8.6168  -17.3821 O   0  0  0  0  0
   -6.5911   -3.4286  -19.7136 O   0  0  0  0  0
   -8.5921   -5.1247  -19.5475 O   0  0  0  0  0
   -8.9531   -3.0369  -20.7797 O   0  0  0  0  0
   -7.4980   -4.8776  -21.8952 O   0  0  0  0  0
   -6.4482    0.4420  -16.7307 O   0  0  0  0  0
   -3.4258   -1.3442  -18.6673 O   0  0  0  0  0
   -1.0007    2.7555  -19.1273 O   0  0  0  0  0
    0.9651    1.0114  -19.0327 O   0  0  0  0  0
    1.3350    3.0948  -20.2703 O   0  0  0  0  0
   -0.1998    1.2936  -21.3416 O   0  0  0  0  0
   -5.3163    2.7518  -16.9481 O   0  0  0  0  0
   -5.1956    5.1702  -17.9749 O   0  0  0  0  0
   -6.5134    4.8525  -15.9327 O   0  0  0  0  0
   -3.9237    4.8177  -15.7328 O   0  0  0  0  0
   -6.5890   -2.3507  -17.1813 O   0  0  0  0  0
   -8.7246   -0.9514  -17.8351 O   0  0  0  0  0
   -8.2134   -1.2107  -15.4424 O   0  0  0  0  0
   -9.1533   -3.2562  -16.7261 O   0  0  0  0  0
   -2.9057   -8.6538  -19.0442 S   0  0  0  0  0
   -7.9598   -4.1200  -20.4687 S   0  0  0  0  0
    0.3269    2.0349  -19.9289 S   0  0  0  0  0
   -5.2689    4.4379  -16.6647 S   0  0  0  0  0
   -8.1876   -1.8837  -16.7858 S   0  0  0  0  0
  2  3  1  0  0  0
  3  7  1  0  0  0
  4  5  1  0  0  0
  4 20  1  0  0  0
  6 16  1  0  0  0
  6  1  1  0  0  0
  7 25  1  0  0  0
  8  9  1  0  0  0
  8 34  1  0  0  0
  9 10  1  0  0  0
 11 12  1  0  0  0
 11 30  1  0  0  0
 13 14  1  0  0  0
 13 26  1  0  0  0
 15 25  1  0  0  0
 15 10  1  0  0  0
 38 16  1  0  0  0
 38 19  1  0  0  0
 39 20  1  0  0  0
 39 23  1  0  0  0
 40 26  1  0  0  0
 40 29  1  0  0  0
 41 30  1  0  0  0
 41 33  1  0  0  0
 42 34  1  0  0  0
 42 37  1  0  0  0
  1  2  2  0  0  0
  3  4  2  0  0  0
  5  6  2  0  0  0
  7  8  2  0  0  0
  9 24  2  0  0  0
 10 11  2  0  0  0
 12 13  2  0  0  0
 14 15  2  0  0  0
 38 17  2  0  0  0
 38 18  2  0  0  0
 39 21  2  0  0  0
 39 22  2  0  0  0
 40 27  2  0  0  0
 40 28  2  0  0  0
 41 31  2  0  0  0
 41 32  2  0  0  0
 42 35  2  0  0  0
 42 36  2  0  0  0
M  END
> <rmsd>
0.783228338

$$$$
CHEMBL439221 PubChem-44437052


 45 49  0  0  0  0  0  0  0  0999 V2000
   -4.8206    6.9560  -21.6220 C   0  0  0  0  0
   -3.7445    4.8979  -21.4651 C   0  0  0  0  0
   -2.4524    4.2019  -21.0871 C   0  0  0  0  0
   -2.6437    2.6961  -21.0378 C   0  0  0  0  0
   -4.7792    2.3860  -19.7641 C   0  0  0  0  0
   -5.2114    1.7955  -18.5705 C   0  0  0  0  0
   -4.0537    1.3354  -17.9797 C   0  0  0  0  0
   -3.0059    1.6434  -18.7951 C   0  0  0  0  0
   -1.7053    1.2769  -18.4706 C   0  0  0  0  0
   -1.5190    0.5816  -17.2598 C   0  0  0  0  0
   -2.6262    0.2835  -16.4366 C   0  0  0  0  0
   -5.0190    0.3144  -15.9472 C   0  0  0  0  0
   -5.5397   -1.0475  -16.3021 C   0  0  0  0  0
   -6.6438   -1.2232  -17.0626 C   0  0  0  0  0
   -7.5623   -0.1158  -17.4165 C   0  0  0  0  0
   -7.4668   -3.1111  -18.8310 C   0  0  0  0  0
   -6.6316   -4.3436  -18.6486 C   0  0  0  0  0
   -5.1822   -5.5833  -20.3156 C   0  0  0  0  0
   -6.0596   -6.7700  -20.3837 C   0  0  0  0  0
   -3.9948   -9.3635  -18.9183 C   0  0  0  0  0
   -3.4684  -10.2155  -20.0604 C   0  0  0  0  0
   -2.9509   -9.1977  -17.8648 C   0  0  0  0  0
   -7.4161   -6.6448  -20.9739 C   0  0  0  0  0
   -9.1451   -5.5384  -21.8769 C   0  0  0  0  0
   -8.2762   -7.7229  -21.2524 C   0  0  0  0  0
   -8.0263   -9.1683  -21.0083 C   0  0  0  0  0
   -6.1683   -3.7734  -17.4021 C   0  0  0  0  0
   -4.7131   -2.2333  -15.8629 C   0  0  0  0  0
   -3.5126    6.3292  -21.5645 N   0  0  0  0  0
   -3.4381    2.2936  -19.8830 N   0  0  0  0  0
   -3.8890    0.6642  -16.8030 N   0  0  0  0  0
   -6.8592   -2.5251  -17.6155 N   0  0  0  0  0
   -5.5915   -4.3784  -19.6689 N   0  0  0  0  0
   -5.6334   -7.9246  -19.9695 N   0  0  0  0  0
   -7.9207   -5.4324  -21.3264 N   0  0  0  0  0
   -9.8899   -4.4120  -22.3298 N   0  0  0  0  0
   -8.2746   -0.1853  -18.4499 O   0  0  0  0  0
   -7.6835    0.9970  -16.5966 O   0  0  0  0  0
   -8.3037   -2.7256  -19.6896 O   0  0  0  0  0
   -4.0461   -5.6291  -20.8639 O   0  0  0  0  0
   -4.3880   -8.0914  -19.4039 O   0  0  0  0  0
   -3.1655   -9.6319  -16.7127 O   0  0  0  0  0
   -1.7527   -8.5584  -18.1418 O   0  0  0  0  0
   -9.6798   -7.1288  -21.9609 S   0  0  0  0  0
   -4.3823   -3.4058  -17.2330 S   0  0  0  0  0
  1 29  1  0  0  0
  2 29  1  0  0  0
  2  3  1  0  0  0
  3  4  1  0  0  0
  4 30  1  0  0  0
  6  7  1  0  0  0
  8  9  1  0  0  0
  8 30  1  0  0  0
 10 11  1  0  0  0
 12 31  1  0  0  0
 12 13  1  0  0  0
 14 15  1  0  0  0
 14 32  1  0  0  0
 15 38  1  0  0  0
 17 16  1  0  0  0
 17 33  1  0  0  0
 17 27  1  0  0  0
 18 19  1  0  0  0
 19 23  1  0  0  0
 20 41  1  0  0  0
 20 21  1  0  0  0
 20 22  1  0  0  0
 22 43  1  0  0  0
 23 35  1  0  0  0
 24 36  1  0  0  0
 24 44  1  0  0  0
 25 44  1  0  0  0
 26 25  1  0  0  0
 27 45  1  0  0  0
 27 32  1  0  0  0
 28 45  1  0  0  0
 28 13  1  0  0  0
 30  5  1  0  0  0
 31  7  1  0  0  0
 32 16  1  0  0  0
 33 18  1  0  0  0
 34 41  1  0  0  0
  5  6  2  0  0  0
  7  8  2  0  0  0
  9 10  2  0  0  0
 11 31  2  0  0  0
 13 14  2  0  0  0
 15 37  2  0  0  0
 16 39  2  0  0  0
 18 40  2  0  0  0
 19 34  2  0  0  0
 22 42  2  0  0  0
 24 35  2  0  0  0
 25 23  2  0  0  0
M  CHG  2  31   1  38  -1
M  END
> <rmsd>
0.745311022

$$$$
CHEMBL2414578 PubChem-71769821


 28 29  0  0  0  0  0  0  0  0999 V2000
   -3.0093  -10.2227  -19.2989 C   0  0  0  0  0
   -3.2819   -8.8826  -18.7179 C   0  0  0  0  0
   -4.6156   -6.7696  -18.9144 C   0  0  0  0  0
   -4.0454   -6.1507  -17.7897 C   0  0  0  0  0
   -4.4424   -4.8700  -17.4025 C   0  0  0  0  0
   -5.4155   -4.1868  -18.1323 C   0  0  0  0  0
   -5.8106   -2.8398  -17.7003 C   0  0  0  0  0
   -6.7282   -2.1215  -18.3384 C   0  0  0  0  0
   -4.7275    0.3156  -17.4872 C   0  0  0  0  0
   -3.6014    1.1683  -17.9577 C   0  0  0  0  0
   -3.1052    1.0318  -19.2603 C   0  0  0  0  0
   -2.0388    1.8274  -19.6900 C   0  0  0  0  0
   -1.4651    2.7575  -18.8179 C   0  0  0  0  0
   -1.9556    2.8907  -17.5153 C   0  0  0  0  0
   -3.0222    2.0953  -17.0851 C   0  0  0  0  0
   -5.9879   -4.7988  -19.2555 C   0  0  0  0  0
   -5.5960   -6.0872  -19.6544 C   0  0  0  0  0
   -7.1367   -6.1960  -21.6278 C   0  0  0  0  0
   -7.6127   -7.0151  -22.7722 C   0  0  0  0  0
   -2.6499   -8.5191  -17.6909 O   0  0  0  0  0
   -4.2371   -8.0579  -19.3297 O   0  0  0  0  0
   -7.3206   -0.5244  -16.2821 O   0  0  0  0  0
   -8.4579   -0.1190  -18.4064 O   0  0  0  0  0
   -6.1545   -6.7227  -20.7766 O   0  0  0  0  0
   -7.6256   -5.0489  -21.4491 O   0  0  0  0  0
   -7.1533   -0.5162  -17.7766 S   0  0  0  0  0
   -5.9345    0.6240  -18.2382 N   0  0  0  0  0
   -0.1305    3.7535  -19.3561 Cl  0  0  0  0  0
  1  2  1  0  0  0
  2 21  1  0  0  0
  3 21  1  0  0  0
  4  5  1  0  0  0
  6  7  1  0  0  0
  6 16  1  0  0  0
  9 27  1  0  0  0
  9 10  1  0  0  0
 11 12  1  0  0  0
 13 28  1  0  0  0
 13 14  1  0  0  0
 15 10  1  0  0  0
 17 24  1  0  0  0
 17  3  1  0  0  0
 18 24  1  0  0  0
 19 18  1  0  0  0
 26  8  1  0  0  0
 26 27  1  0  0  0
  2 20  2  0  0  0
  3  4  2  0  0  0
  5  6  2  0  0  0
  7  8  2  0  0  0
 10 11  2  0  0  0
 12 13  2  0  0  0
 14 15  2  0  0  0
 16 17  2  0  0  0
 18 25  2  0  0  0
 26 22  2  0  0  0
 26 23  2  0  0  0
M  END
> <rmsd>
0.667660654

$$$$
CHEMBL4739983 PubChem-162644987


 60 65  0  0  0  0  0  0  0  0999 V2000
   -9.4545   -6.9045  -20.3947 C   0  0  0  0  0
   -5.4947   -7.7798  -19.4056 C   0  0  0  0  0
   -4.7016   -7.8674  -18.1468 C   0  0  0  0  0
   -1.8209   -7.9284  -19.8691 C   0  0  0  0  0
   -1.9504   -9.3196  -19.9595 C   0  0  0  0  0
   -1.7858   -9.9606  -21.1904 C   0  0  0  0  0
   -1.4924   -9.2171  -22.3400 C   0  0  0  0  0
   -1.3635   -7.8207  -22.2457 C   0  0  0  0  0
   -1.5285   -7.1802  -21.0151 C   0  0  0  0  0
   -1.0786   -9.2087  -24.7776 C   0  0  0  0  0
   -4.1856   -5.4435  -17.8199 C   0  0  0  0  0
   -4.0429   -4.4160  -18.7612 C   0  0  0  0  0
   -4.4756   -3.1476  -18.5013 C   0  0  0  0  0
   -4.3938   -0.8344  -19.6672 C   0  0  0  0  0
   -5.7903   -0.3636  -19.3735 C   0  0  0  0  0
   -7.6945    2.3175  -18.3987 C   0  0  0  0  0
   -6.5650    3.1559  -18.3296 C   0  0  0  0  0
   -4.2393    3.5166  -17.5439 C   0  0  0  0  0
   -6.6027    4.4113  -18.9600 C   0  0  0  0  0
   -7.7483    4.8291  -19.6418 C   0  0  0  0  0
   -8.8687    3.9987  -19.6979 C   0  0  0  0  0
   -8.8408    2.7469  -19.0789 C   0  0  0  0  0
   -7.7755    6.1580  -20.3059 C   0  0  0  0  0
   -3.3225   -0.1130  -18.8990 C   0  0  0  0  0
   -3.1737   -0.2770  -17.5145 C   0  0  0  0  0
   -2.1691    0.4136  -16.8176 C   0  0  0  0  0
   -2.8292   -0.5761  -14.6483 C   0  0  0  0  0
   -1.3117    1.2684  -17.5182 C   0  0  0  0  0
   -1.4557    1.4349  -18.8986 C   0  0  0  0  0
   -2.4598    0.7467  -19.5861 C   0  0  0  0  0
   -3.6457   -3.0609  -20.6800 C   0  0  0  0  0
   -3.5014   -4.4997  -20.1433 C   0  0  0  0  0
   -5.1026   -2.8273  -17.2978 C   0  0  0  0  0
   -5.2757   -3.8417  -16.3434 C   0  0  0  0  0
   -4.8227   -5.1459  -16.6043 C   0  0  0  0  0
  -10.1012   -5.7080  -20.0656 C   0  0  0  0  0
  -11.4653   -5.7115  -19.7505 C   0  0  0  0  0
  -12.1914   -6.9094  -19.7593 C   0  0  0  0  0
  -11.5369   -8.1096  -20.0862 C   0  0  0  0  0
  -10.1737   -8.1058  -20.4011 C   0  0  0  0  0
  -14.3691   -8.0470  -19.4270 C   0  0  0  0  0
   -7.7441   -6.9050  -20.7857 S   0  0  0  0  0
   -2.0547   -7.1246  -18.3263 S   0  0  0  0  0
   -7.6843    0.7216  -17.6539 S   0  0  0  0  0
   -7.3371   -5.5493  -21.2971 O   0  0  0  0  0
   -7.4882   -7.9367  -21.8496 O   0  0  0  0  0
   -4.9631   -8.0952  -20.5037 O   0  0  0  0  0
   -1.5661   -8.0077  -17.2116 O   0  0  0  0  0
   -1.2545   -5.8507  -18.3084 O   0  0  0  0  0
   -1.3373   -9.8863  -23.5564 O   0  0  0  0  0
   -6.6009   -0.2107  -20.3278 O   0  0  0  0  0
   -8.8331   -0.1063  -18.1633 O   0  0  0  0  0
   -7.8086    0.8737  -16.1629 O   0  0  0  0  0
   -5.4240    2.7334  -17.6355 O   0  0  0  0  0
   -2.0042    0.2729  -15.4349 O   0  0  0  0  0
  -13.5546   -6.8807  -19.4407 O   0  0  0  0  0
   -6.8343   -7.2779  -19.3597 N   0  0  0  0  0
   -3.7387   -6.7760  -18.0952 N   0  0  0  0  0
   -4.2531   -2.2892  -19.6076 N   0  0  0  0  0
   -6.1946   -0.0797  -18.0291 N   0  0  0  0  0
  3  2  1  0  0  0
  3 58  1  0  0  0
  5  6  1  0  0  0
  7  8  1  0  0  0
  7 50  1  0  0  0
  9  4  1  0  0  0
 10 50  1  0  0  0
 11 12  1  0  0  0
 13 59  1  0  0  0
 13 33  1  0  0  0
 14 59  1  0  0  0
 14 15  1  0  0  0
 14 24  1  0  0  0
 15 60  1  0  0  0
 17 54  1  0  0  0
 17 19  1  0  0  0
 18 54  1  0  0  0
 20 21  1  0  0  0
 22 16  1  0  0  0
 23 20  1  0  0  0
 25 26  1  0  0  0
 26 55  1  0  0  0
 27 55  1  0  0  0
 28 29  1  0  0  0
 30 24  1  0  0  0
 31 59  1  0  0  0
 31 32  1  0  0  0
 32 12  1  0  0  0
 34 35  1  0  0  0
 36 37  1  0  0  0
 38 39  1  0  0  0
 38 56  1  0  0  0
 40  1  1  0  0  0
 41 56  1  0  0  0
 42  1  1  0  0  0
 42 57  1  0  0  0
 43 58  1  0  0  0
 43  4  1  0  0  0
 44 60  1  0  0  0
 44 16  1  0  0  0
 57  2  1  0  0  0
 58 11  1  0  0  0
  1 36  2  0  0  0
  2 47  2  0  0  0
  4  5  2  0  0  0
  6  7  2  0  0  0
  8  9  2  0  0  0
 12 13  2  0  0  0
 15 51  2  0  0  0
 16 17  2  0  0  0
 19 20  2  0  0  0
 21 22  2  0  0  0
 24 25  2  0  0  0
 26 28  2  0  0  0
 29 30  2  0  0  0
 33 34  2  0  0  0
 35 11  2  0  0  0
 37 38  2  0  0  0
 39 40  2  0  0  0
 42 45  2  0  0  0
 42 46  2  0  0  0
 43 48  2  0  0  0
 43 49  2  0  0  0
 44 52  2  0  0  0
 44 53  2  0  0  0
M  END
> <rmsd>
0.71489197

$$$$
CHEMBL2058190 PubChem-70692681


 90101  0  0  0  0  0  0  0  0999 V2000
   -5.5400   -2.7005  -18.7310 C   0  0  0  0  0
   -5.9498   -1.7566  -17.6137 C   0  0  0  0  0
   -6.7366   -0.6057  -18.1875 C   0  0  0  0  0
   -6.3332    0.5575  -17.3307 C   0  0  0  0  0
   -4.9685    0.1380  -16.8225 C   0  0  0  0  0
   -2.9850    1.6786  -16.9699 C   0  0  0  0  0
   -2.4575    1.5527  -19.0238 C   0  0  0  0  0
   -1.8862    1.6238  -20.2868 C   0  0  0  0  0
   -3.5819    0.1339  -21.0594 C   0  0  0  0  0
   -3.5479    0.7842  -18.8181 C   0  0  0  0  0
   -4.0478   -6.3760  -18.6879 C   0  0  0  0  0
   -3.5153   -7.4119  -17.7435 C   0  0  0  0  0
   -4.5033   -8.5509  -17.9136 C   0  0  0  0  0
   -5.4405   -8.5875  -16.7180 C   0  0  0  0  0
   -8.7003  -11.3354  -16.6664 C   0  0  0  0  0
  -10.1437  -11.7477  -16.5741 C   0  0  0  0  0
  -10.0826  -13.2335  -16.8912 C   0  0  0  0  0
  -11.3807  -13.7735  -17.5036 C   0  0  0  0  0
  -11.0488  -15.9639  -17.7549 C   0  0  0  0  0
  -10.9184  -18.7424  -20.0850 C   0  0  0  0  0
  -10.8465  -19.3961  -21.4420 C   0  0  0  0  0
  -12.2579  -19.2661  -21.9513 C   0  0  0  0  0
  -12.5960  -20.3625  -22.9496 C   0  0  0  0  0
  -12.4107  -18.7517  -19.7730 C   0  0  0  0  0
  -13.2328  -19.0429  -17.4143 C   0  0  0  0  0
  -12.7506  -21.0749  -17.0160 C   0  0  0  0  0
  -12.5009  -22.3331  -16.4856 C   0  0  0  0  0
  -11.4801  -22.9267  -18.5590 C   0  0  0  0  0
  -12.3756  -20.7911  -18.2819 C   0  0  0  0  0
   -8.0022  -12.5511  -17.2617 C   0  0  0  0  0
   -5.7858  -12.2737  -18.4125 C   0  0  0  0  0
   -6.3496  -11.4165  -20.2703 C   0  0  0  0  0
   -6.4447  -10.8672  -21.5409 C   0  0  0  0  0
   -8.8116  -10.8025  -21.2625 C   0  0  0  0  0
   -7.4679  -11.6187  -19.5442 C   0  0  0  0  0
   -4.7529   -7.2098  -19.7277 C   0  0  0  0  0
   -5.8944   -6.0423  -21.6367 C   0  0  0  0  0
   -7.6588   -5.2995  -20.7172 C   0  0  0  0  0
   -8.8601   -4.6986  -20.3718 C   0  0  0  0  0
   -8.5546   -5.5248  -18.1535 C   0  0  0  0  0
   -6.9547   -5.9774  -19.7882 C   0  0  0  0  0
   -8.1060   -0.8599  -18.1199 O   0  0  0  0  0
   -7.1939    0.6955  -16.2408 O   0  0  0  0  0
   -4.8018   -1.2552  -16.9717 O   0  0  0  0  0
   -4.9591   -3.8533  -18.1939 O   0  0  0  0  0
   -2.3830   -3.4883  -17.8780 O   0  0  0  0  0
   -3.2803   -3.0648  -20.2991 O   0  0  0  0  0
   -3.0387   -5.6005  -19.2672 O   0  0  0  0  0
   -6.1791   -9.7682  -16.7455 O   0  0  0  0  0
   -6.6541   -9.3527  -14.1899 O   0  0  0  0  0
   -8.4086   -8.3685  -15.8624 O   0  0  0  0  0
   -8.2010  -11.0866  -15.3850 O   0  0  0  0  0
  -11.1301  -14.7622  -18.4612 O   0  0  0  0  0
   -8.5354  -16.3273  -18.7242 O   0  0  0  0  0
   -9.6226  -18.4441  -17.6401 O   0  0  0  0  0
  -10.4576  -17.4215  -20.1275 O   0  0  0  0  0
  -12.5127  -21.6214  -22.3482 O   0  0  0  0  0
  -13.1305  -22.7134  -24.6611 O   0  0  0  0  0
  -10.5905  -22.1996  -24.2705 O   0  0  0  0  0
  -11.8925  -24.2410  -22.9456 O   0  0  0  0  0
  -13.1278  -19.3104  -20.8502 O   0  0  0  0  0
   -9.9459  -18.7567  -22.2936 O   0  0  0  0  0
   -8.9706  -13.4559  -17.7191 O   0  0  0  0  0
  -10.8623  -11.0523  -17.5554 O   0  0  0  0  0
   -5.2541   -8.3647  -19.0988 O   0  0  0  0  0
   -2.2494   -7.8518  -18.1410 O   0  0  0  0  0
   -3.9033    0.8491  -17.5289 N   0  0  0  0  0
   -2.0737    2.1372  -17.8748 N   0  0  0  0  0
   -0.7243    2.4069  -20.5293 N   0  0  0  0  0
   -2.4708    0.9021  -21.2927 N   0  0  0  0  0
   -4.1286    0.0635  -19.8080 N   0  0  0  0  0
  -12.6651  -19.5104  -18.5525 N   0  0  0  0  0
  -13.3001  -19.9916  -16.4355 N   0  0  0  0  0
  -12.8726  -22.6602  -15.1505 N   0  0  0  0  0
  -11.8650  -23.2452  -17.2796 N   0  0  0  0  0
  -11.7293  -21.6825  -19.0707 N   0  0  0  0  0
   -7.1346  -12.1590  -18.3662 N   0  0  0  0  0
   -5.2615  -11.8157  -19.5861 N   0  0  0  0  0
   -5.2876  -10.6199  -22.3307 N   0  0  0  0  0
   -7.6884  -10.5661  -22.0148 N   0  0  0  0  0
   -8.7092  -11.3365  -20.0075 N   0  0  0  0  0
   -5.8371   -6.4534  -20.3436 N   0  0  0  0  0
   -7.0230   -5.3245  -21.9038 N   0  0  0  0  0
   -9.6286   -3.9694  -21.3220 N   0  0  0  0  0
   -9.2890   -4.8292  -19.0812 N   0  0  0  0  0
   -7.3707   -6.1112  -18.5044 N   0  0  0  0  0
   -3.4020   -3.9834  -18.8793 P   0  0  0  0  0
   -7.3365   -9.6306  -15.5119 P   0  0  0  0  0
   -9.8552  -17.0535  -18.5802 P   0  0  0  0  0
  -12.0661  -22.6883  -23.5907 P   0  0  0  0  0
  1 45  1  0  0  0
  2  1  1  0  0  0
  2  3  1  0  0  0
  2 44  1  0  0  0
  3 42  1  0  0  0
  3  4  1  0  0  0
  4 43  1  0  0  0
  4  5  1  0  0  0
  5 44  1  0  0  0
  5 67  1  0  0  0
  7 68  1  0  0  0
  8 69  1  0  0  0
  8 70  1  0  0  0
  9 71  1  0  0  0
 10 67  1  0  0  0
 10  7  1  0  0  0
 11 48  1  0  0  0
 11 12  1  0  0  0
 12 13  1  0  0  0
 12 66  1  0  0  0
 13 14  1  0  0  0
 13 65  1  0  0  0
 14 49  1  0  0  0
 15 52  1  0  0  0
 15 16  1  0  0  0
 16 17  1  0  0  0
 16 64  1  0  0  0
 17 18  1  0  0  0
 17 63  1  0  0  0
 18 53  1  0  0  0
 19 53  1  0  0  0
 19 89  1  0  0  0
 20 56  1  0  0  0
 20 21  1  0  0  0
 21 22  1  0  0  0
 21 62  1  0  0  0
 22 23  1  0  0  0
 22 61  1  0  0  0
 23 57  1  0  0  0
 24 61  1  0  0  0
 24 72  1  0  0  0
 24 20  1  0  0  0
 26 73  1  0  0  0
 27 74  1  0  0  0
 27 75  1  0  0  0
 28 76  1  0  0  0
 29 72  1  0  0  0
 29 26  1  0  0  0
 30 63  1  0  0  0
 30 77  1  0  0  0
 30 15  1  0  0  0
 32 78  1  0  0  0
 33 79  1  0  0  0
 33 80  1  0  0  0
 34 81  1  0  0  0
 35 77  1  0  0  0
 35 32  1  0  0  0
 36 65  1  0  0  0
 36 82  1  0  0  0
 36 11  1  0  0  0
 38 83  1  0  0  0
 39 84  1  0  0  0
 39 85  1  0  0  0
 40 86  1  0  0  0
 41 82  1  0  0  0
 41 38  1  0  0  0
 67  6  1  0  0  0
 72 25  1  0  0  0
 77 31  1  0  0  0
 82 37  1  0  0  0
 87 45  1  0  0  0
 87 47  1  0  0  0
 87 48  1  0  0  0
 88 49  1  0  0  0
 88 51  1  0  0  0
 88 52  1  0  0  0
 89 55  1  0  0  0
 89 56  1  0  0  0
 90 57  1  0  0  0
 90 59  1  0  0  0
 90 60  1  0  0  0
  6 68  2  0  0  0
  7  8  2  0  0  0
  9 70  2  0  0  0
 10 71  2  0  0  0
 25 73  2  0  0  0
 26 27  2  0  0  0
 28 75  2  0  0  0
 29 76  2  0  0  0
 31 78  2  0  0  0
 32 33  2  0  0  0
 34 80  2  0  0  0
 35 81  2  0  0  0
 37 83  2  0  0  0
 38 39  2  0  0  0
 40 85  2  0  0  0
 41 86  2  0  0  0
 87 46  2  0  0  0
 88 50  2  0  0  0
 89 54  2  0  0  0
 90 58  2  0  0  0
M  END
> <rmsd>
0.761357605

$$$$
CHEMBL384858 PubChem-10653815


 80 81  0  0  0  0  0  0  0  0999 V2000
  -12.3937   -8.5563  -25.0712 N   0  0  0  0  0
   -9.1960   -7.8460  -20.5370 N   0  0  0  0  0
  -10.7912  -12.4954  -17.9604 N   0  0  0  0  0
  -12.9366  -13.4903  -15.8700 N   0  0  0  0  0
  -14.7464  -12.6760  -13.0362 N   0  0  0  0  0
  -15.1365  -14.1554   -9.6148 N   0  0  0  0  0
   -7.7958  -13.3666  -18.3045 N   0  0  0  0  0
   -1.6442  -15.6806  -18.6498 N   0  0  0  0  0
   -7.3582  -15.9133  -20.7443 N   0  0  0  0  0
   -6.7047   -8.4366  -18.6505 N   0  0  0  0  0
   -5.8980   -4.7776  -18.0528 N   0  0  0  0  0
   -5.6130   -2.0520  -17.2066 N   0  0  0  0  0
   -3.0168    0.6038  -16.7032 N   0  0  0  0  0
   -7.9176   -7.1221  -23.7353 N   0  0  0  0  0
  -11.9306   -8.4395  -23.7013 C   0  0  0  0  0
  -12.5856   -7.2342  -23.0476 C   0  0  0  0  0
  -12.0463   -7.0184  -21.6381 C   0  0  0  0  0
  -10.6935   -6.3104  -21.6883 C   0  0  0  0  0
   -9.5623   -7.3152  -21.8424 C   0  0  0  0  0
   -8.3342   -8.9760  -20.3741 C   0  0  0  0  0
   -7.8040   -9.3258  -19.0198 C   0  0  0  0  0
   -8.8987   -9.3531  -17.9566 C   0  0  0  0  0
   -9.1133  -10.7571  -17.4040 C   0  0  0  0  0
   -9.6879  -11.6820  -18.4733 C   0  0  0  0  0
  -10.7155  -13.4262  -16.8755 C   0  0  0  0  0
  -11.8945  -14.2777  -16.5160 C   0  0  0  0  0
  -12.4294  -15.1037  -17.6928 C   0  0  0  0  0
  -13.4846  -14.4117  -18.5009 C   0  0  0  0  0
  -12.8134  -13.0181  -14.5301 C   0  0  0  0  0
  -13.8336  -12.0563  -13.9993 C   0  0  0  0  0
  -13.2029  -10.7917  -13.4308 C   0  0  0  0  0
  -12.7730   -9.8679  -14.5600 C   0  0  0  0  0
  -12.1318   -8.6417  -14.0075 C   0  0  0  0  0
  -14.3873  -13.1363  -11.7254 C   0  0  0  0  0
  -15.4473  -13.4811  -10.7576 C   0  0  0  0  0
  -16.7750  -13.0950  -10.9878 C   0  0  0  0  0
  -17.7547  -13.3878  -10.0342 C   0  0  0  0  0
  -17.4069  -14.0642   -8.8625 C   0  0  0  0  0
  -16.0772  -14.4461   -8.6694 C   0  0  0  0  0
   -8.6262  -12.5269  -19.1109 C   0  0  0  0  0
   -6.8349  -14.3103  -18.8609 C   0  0  0  0  0
   -5.8454  -14.7108  -17.7735 C   0  0  0  0  0
   -4.6479  -15.4506  -18.3555 C   0  0  0  0  0
   -3.7234  -14.4837  -19.0786 C   0  0  0  0  0
   -2.5508  -15.2363  -19.6922 C   0  0  0  0  0
   -7.5552  -15.5137  -19.3909 C   0  0  0  0  0
   -6.8284   -7.0349  -18.3789 C   0  0  0  0  0
   -5.6065   -6.1607  -18.4308 C   0  0  0  0  0
   -4.4486   -6.7194  -17.6039 C   0  0  0  0  0
   -3.5731   -7.6643  -18.3748 C   0  0  0  0  0
   -6.2110   -4.3457  -16.7194 C   0  0  0  0  0
   -6.5152   -2.9092  -16.4506 C   0  0  0  0  0
   -7.9610   -2.6061  -16.8144 C   0  0  0  0  0
   -8.4638   -1.3397  -16.1262 C   0  0  0  0  0
   -8.0274   -0.1121  -16.8572 C   0  0  0  0  0
   -4.6408   -1.2301  -16.5563 C   0  0  0  0  0
   -3.8592   -0.2598  -17.3370 C   0  0  0  0  0
   -3.9848   -0.1969  -18.7325 C   0  0  0  0  0
   -3.2383    0.7371  -19.4523 C   0  0  0  0  0
   -2.3803    1.6038  -18.7781 C   0  0  0  0  0
   -2.2842    1.5212  -17.3872 C   0  0  0  0  0
   -8.3808   -6.6567  -22.4748 C   0  0  0  0  0
   -7.9718   -9.6539  -21.3772 O   0  0  0  0  0
   -9.6709  -13.5149  -16.1779 O   0  0  0  0  0
  -14.6687  -14.8383  -18.4755 O   0  0  0  0  0
  -13.1672  -13.3146  -19.2880 O   0  0  0  0  0
  -11.8528  -13.3992  -13.8072 O   0  0  0  0  0
  -10.9244   -8.3873  -14.2754 O   0  0  0  0  0
  -12.8581   -7.7723  -13.1979 O   0  0  0  0  0
  -13.1700  -13.2400  -11.3915 O   0  0  0  0  0
   -8.4489  -12.4606  -20.3554 O   0  0  0  0  0
   -8.3338  -16.1743  -18.6497 O   0  0  0  0  0
   -7.9637   -6.5275  -18.1575 O   0  0  0  0  0
   -3.7875   -7.9172  -19.5909 O   0  0  0  0  0
   -2.4972   -8.2676  -17.7326 O   0  0  0  0  0
   -6.2541   -5.1719  -15.7660 O   0  0  0  0  0
   -8.4189    0.1047  -18.0367 O   0  0  0  0  0
   -7.2063    0.8076  -16.2242 O   0  0  0  0  0
   -4.4552   -1.3342  -15.3119 O   0  0  0  0  0
   -7.7870   -5.7060  -21.8978 O   0  0  0  0  0
  2 20  1  0  0  0
  3 25  1  0  0  0
  4 29  1  0  0  0
  5 34  1  0  0  0
 10 47  1  0  0  0
 11 51  1  0  0  0
 12 56  1  0  0  0
 15  1  1  0  0  0
 15 16  1  0  0  0
 16 17  1  0  0  0
 17 18  1  0  0  0
 19 18  1  0  0  0
 19  2  1  0  0  0
 19 62  1  0  0  0
 21 20  1  0  0  0
 21 22  1  0  0  0
 21 10  1  0  0  0
 22 23  1  0  0  0
 24 23  1  0  0  0
 24  3  1  0  0  0
 24 40  1  0  0  0
 26 25  1  0  0  0
 26 27  1  0  0  0
 26  4  1  0  0  0
 27 28  1  0  0  0
 28 66  1  0  0  0
 30 29  1  0  0  0
 30 31  1  0  0  0
 30  5  1  0  0  0
 31 32  1  0  0  0
 32 33  1  0  0  0
 33 69  1  0  0  0
 34 35  1  0  0  0
 35  6  1  0  0  0
 36 37  1  0  0  0
 38 39  1  0  0  0
 40  7  1  0  0  0
 41  7  1  0  0  0
 41 42  1  0  0  0
 41 46  1  0  0  0
 42 43  1  0  0  0
 43 44  1  0  0  0
 44 45  1  0  0  0
 45  8  1  0  0  0
 46  9  1  0  0  0
 48 47  1  0  0  0
 48 49  1  0  0  0
 48 11  1  0  0  0
 49 50  1  0  0  0
 50 75  1  0  0  0
 52 51  1  0  0  0
 52 53  1  0  0  0
 52 12  1  0  0  0
 53 54  1  0  0  0
 54 55  1  0  0  0
 55 78  1  0  0  0
 56 57  1  0  0  0
 57 13  1  0  0  0
 58 59  1  0  0  0
 60 61  1  0  0  0
 62 14  1  0  0  0
 20 63  2  0  0  0
 25 64  2  0  0  0
 28 65  2  0  0  0
 29 67  2  0  0  0
 33 68  2  0  0  0
 34 70  2  0  0  0
 35 36  2  0  0  0
 37 38  2  0  0  0
 39  6  2  0  0  0
 40 71  2  0  0  0
 46 72  2  0  0  0
 47 73  2  0  0  0
 50 74  2  0  0  0
 51 76  2  0  0  0
 55 77  2  0  0  0
 56 79  2  0  0  0
 57 58  2  0  0  0
 59 60  2  0  0  0
 61 13  2  0  0  0
 62 80  2  0  0  0
M  END
> <rmsd>
0.72304064

$$$$
CHEMBL2017788 PubChem-70691740


 29 29  0  0  0  0  0  0  0  0999 V2000
   -5.1059   -6.9137  -19.3271 C   0  0  0  0  0
   -6.1142   -6.8301  -20.4610 C   0  0  0  0  0
   -6.3394   -5.3768  -20.8764 C   0  0  0  0  0
   -6.9634   -4.5222  -19.7650 C   0  0  0  0  0
   -6.7299   -3.0277  -20.0286 C   0  0  0  0  0
   -4.6395   -2.9890  -19.0664 C   0  0  0  0  0
   -3.5193   -1.9815  -18.8911 C   0  0  0  0  0
   -4.0906   -0.6353  -18.4778 C   0  0  0  0  0
   -3.0045    0.3685  -18.2980 C   0  0  0  0  0
   -2.0533    0.2164  -17.2795 C   0  0  0  0  0
   -1.0483    1.1737  -17.1102 C   0  0  0  0  0
   -0.9952    2.2875  -17.9537 C   0  0  0  0  0
   -1.9485    2.4452  -18.9649 C   0  0  0  0  0
   -2.9531    1.4876  -19.1355 C   0  0  0  0  0
   -7.3958   -2.1384  -18.9784 C   0  0  0  0  0
   -7.1054   -5.3184  -22.0440 O   0  0  0  0  0
   -5.3686   -2.6978  -20.2341 O   0  0  0  0  0
   -7.3493   -0.8047  -19.3877 O   0  0  0  0  0
   -7.8689    1.5589  -18.4003 O   0  0  0  0  0
   -9.4823   -0.3638  -17.6735 O   0  0  0  0  0
   -6.8919   -0.1881  -16.7220 O   0  0  0  0  0
   -8.3326   -4.7859  -19.6559 O   0  0  0  0  0
   -7.3162   -7.4356  -20.0861 O   0  0  0  0  0
   -4.8035   -8.2493  -19.0531 O   0  0  0  0  0
   -2.5409   -7.5188  -17.9314 O   0  0  0  0  0
   -3.5444   -9.8010  -17.1504 O   0  0  0  0  0
   -4.6728   -7.3976  -16.4127 O   0  0  0  0  0
   -7.8967    0.0881  -18.0551 P   0  0  0  0  0
   -3.8540   -8.2148  -17.6485 P   0  0  0  0  0
  1  2  1  0  0  0
  1 24  1  0  0  0
  2  3  1  0  0  0
  2 23  1  0  0  0
  3 16  1  0  0  0
  3  4  1  0  0  0
  4  5  1  0  0  0
  4 22  1  0  0  0
  5 17  1  0  0  0
  5 15  1  0  0  0
  6 17  1  0  0  0
  6  7  1  0  0  0
  7  8  1  0  0  0
  8  9  1  0  0  0
 10 11  1  0  0  0
 12 13  1  0  0  0
 14  9  1  0  0  0
 15 18  1  0  0  0
 28 18  1  0  0  0
 28 20  1  0  0  0
 28 21  1  0  0  0
 29 24  1  0  0  0
 29 26  1  0  0  0
 29 27  1  0  0  0
  9 10  2  0  0  0
 11 12  2  0  0  0
 13 14  2  0  0  0
 28 19  2  0  0  0
 29 25  2  0  0  0
M  END
> <rmsd>
0.694866061

$$$$
CHEMBL2368793 PubChem-5326857


 74 81  0  0  0  0  0  0  0  0999 V2000
   -7.2201   -7.6554  -19.9157 C   0  0  0  0  0
   -6.4405   -7.9437  -18.6650 C   0  0  0  0  0
   -5.1732   -8.5265  -19.2378 C   0  0  0  0  0
   -6.1002   -7.2834  -20.8819 C   0  0  0  0  0
   -5.9353   -5.7708  -20.9510 C   0  0  0  0  0
   -6.0988   -1.6508  -19.9249 C   0  0  0  0  0
   -4.7548   -1.5503  -19.2522 C   0  0  0  0  0
   -4.0633   -0.4954  -20.0778 C   0  0  0  0  0
   -6.2426   -0.2914  -20.5959 C   0  0  0  0  0
   -7.3952    0.4968  -19.9792 C   0  0  0  0  0
   -9.4077    2.5806  -18.1388 C   0  0  0  0  0
  -10.0143    3.2092  -19.3595 C   0  0  0  0  0
  -11.2845    3.8326  -18.8318 C   0  0  0  0  0
  -10.0197    3.3694  -16.9964 C   0  0  0  0  0
   -9.0034    4.3515  -16.4319 C   0  0  0  0  0
  -12.7575    5.1712  -20.2707 C   0  0  0  0  0
  -12.2065    7.3981  -20.8716 C   0  0  0  0  0
  -11.0261    7.3185  -20.1392 C   0  0  0  0  0
  -10.7404    6.1270  -19.4768 C   0  0  0  0  0
   -3.1909    0.9120  -18.2141 C   0  0  0  0  0
   -0.8648    1.3026  -18.0067 C   0  0  0  0  0
   -0.6240    0.5496  -19.1516 C   0  0  0  0  0
   -1.7153   -0.0227  -19.8068 C   0  0  0  0  0
   -3.4365   -7.2839  -17.8844 C   0  0  0  0  0
   -2.3694   -8.9018  -16.9951 C   0  0  0  0  0
   -3.3715   -9.4088  -17.7503 C   0  0  0  0  0
   -2.7897  -11.5928  -17.1727 C   0  0  0  0  0
   -1.5222   -9.7598  -16.2863 C   0  0  0  0  0
    0.0883   -7.9375  -15.5670 C   0  0  0  0  0
    0.2189  -10.1896  -14.5249 C   0  0  0  0  0
   -8.5501   -9.0104  -21.6355 C   0  0  0  0  0
   -9.1072  -10.3492  -22.0048 C   0  0  0  0  0
   -7.9783  -11.3439  -22.2187 C   0  0  0  0  0
   -8.4327  -12.7448  -21.9781 C   0  0  0  0  0
   -8.8706  -13.1394  -20.7063 C   0  0  0  0  0
   -9.2535  -14.4644  -20.4808 C   0  0  0  0  0
   -9.1950  -15.4066  -21.5167 C   0  0  0  0  0
   -8.7478  -15.0091  -22.7896 C   0  0  0  0  0
   -8.3687  -13.6823  -23.0154 C   0  0  0  0  0
   -9.5695  -17.7424  -22.2479 C   0  0  0  0  0
   -4.8881   -7.8682  -20.4487 O   0  0  0  0  0
   -7.1124   -5.1646  -21.4077 O   0  0  0  0  0
   -8.6530   -3.1624  -20.7154 O   0  0  0  0  0
   -6.0918   -2.6417  -20.9142 O   0  0  0  0  0
   -5.0325    0.4336  -20.4900 O   0  0  0  0  0
   -7.0753    0.9073  -18.6820 O   0  0  0  0  0
   -8.5969   -1.0941  -17.8841 O   0  0  0  0  0
   -9.7824    1.2371  -18.0324 O   0  0  0  0  0
  -11.1494    4.0827  -17.4524 O   0  0  0  0  0
   -7.9932    3.6710  -15.7635 O   0  0  0  0  0
  -13.5655    4.2031  -20.3327 O   0  0  0  0  0
  -10.3044    2.2642  -20.3483 O   0  0  0  0  0
   -7.9228    0.6457  -16.0712 O   0  0  0  0  0
   -4.3578    1.0995  -17.7677 O   0  0  0  0  0
   -4.0470   -2.7551  -19.2969 O   0  0  0  0  0
   -7.1509   -4.1568  -18.8278 O   0  0  0  0  0
   -7.0834   -8.8693  -17.8362 O   0  0  0  0  0
   -8.6034   -8.0397  -22.4405 O   0  0  0  0  0
   -9.5921  -16.7222  -21.2568 O   0  0  0  0  0
   -7.2877   -3.7628  -20.4693 P   0  0  0  0  0
   -8.3523    0.3842  -17.6864 P   0  0  0  0  0
  -11.6005    5.0679  -19.5470 N   0  0  0  0  0
  -13.0472    6.3275  -20.9236 N   0  0  0  0  0
  -12.5379    8.6031  -21.5487 N   0  0  0  0  0
   -2.9800    0.1558  -19.3377 N   0  0  0  0  0
   -2.1360    1.4693  -17.5623 N   0  0  0  0  0
    0.2181    1.8983  -17.3033 N   0  0  0  0  0
   -4.0545   -8.4110  -18.3144 N   0  0  0  0  0
   -2.3853   -7.5550  -17.0557 N   0  0  0  0  0
   -3.6079  -10.7395  -17.8623 N   0  0  0  0  0
   -1.7679  -11.1037  -16.3976 N   0  0  0  0  0
   -0.4426   -9.2859  -15.4570 N   0  0  0  0  0
   -7.8855   -8.8726  -20.3768 N   0  0  0  0  0
   -9.9297  -10.2639  -23.2013 N   0  0  0  0  0
  1  2  1  0  0  0
  1 73  1  0  0  0
  2  3  1  0  0  0
  2 57  1  0  0  0
  3 41  1  0  0  0
  3 68  1  0  0  0
  4 41  1  0  0  0
  4  5  1  0  0  0
  4  1  1  0  0  0
  5 42  1  0  0  0
  6 44  1  0  0  0
  6  7  1  0  0  0
  7  8  1  0  0  0
  7 55  1  0  0  0
  8 45  1  0  0  0
  8 65  1  0  0  0
  9 45  1  0  0  0
  9 10  1  0  0  0
  9  6  1  0  0  0
 10 46  1  0  0  0
 11 48  1  0  0  0
 11 12  1  0  0  0
 12 13  1  0  0  0
 12 52  1  0  0  0
 13 49  1  0  0  0
 13 62  1  0  0  0
 14 49  1  0  0  0
 14 15  1  0  0  0
 14 11  1  0  0  0
 15 50  1  0  0  0
 16 63  1  0  0  0
 17 18  1  0  0  0
 17 64  1  0  0  0
 19 62  1  0  0  0
 20 66  1  0  0  0
 21 22  1  0  0  0
 21 67  1  0  0  0
 23 65  1  0  0  0
 25 69  1  0  0  0
 26 70  1  0  0  0
 26 68  1  0  0  0
 27 71  1  0  0  0
 28 72  1  0  0  0
 28 25  1  0  0  0
 29 72  1  0  0  0
 30 72  1  0  0  0
 32 31  1  0  0  0
 32 33  1  0  0  0
 32 74  1  0  0  0
 33 34  1  0  0  0
 35 36  1  0  0  0
 37 38  1  0  0  0
 37 59  1  0  0  0
 39 34  1  0  0  0
 40 59  1  0  0  0
 60 42  1  0  0  0
 60 44  1  0  0  0
 60 56  1  0  0  0
 61 46  1  0  0  0
 61 48  1  0  0  0
 61 53  1  0  0  0
 62 16  1  0  0  0
 65 20  1  0  0  0
 68 24  1  0  0  0
 73 31  1  0  0  0
 16 51  2  0  0  0
 17 63  2  0  0  0
 18 19  2  0  0  0
 20 54  2  0  0  0
 21 66  2  0  0  0
 22 23  2  0  0  0
 24 69  2  0  0  0
 25 26  2  0  0  0
 27 70  2  0  0  0
 28 71  2  0  0  0
 31 58  2  0  0  0
 34 35  2  0  0  0
 36 37  2  0  0  0
 38 39  2  0  0  0
 60 43  2  0  0  0
 61 47  2  0  0  0
M  END
> <rmsd>
0.81657064

$$$$
CHEMBL3110213 PubChem-76335751


 45 49  0  0  0  0  0  0  0  0999 V2000
   -1.9020   -9.5743  -14.9732 O   0  0  0  0  0
   -2.0087   -8.2486  -16.8345 O   0  0  0  0  0
   -3.7387  -10.2241  -19.1764 O   0  0  0  0  0
   -2.0833  -11.5052  -17.6707 O   0  0  0  0  0
   -4.2077   -7.2324  -19.5082 O   0  0  0  0  0
   -4.3287   -4.6246  -19.7113 O   0  0  0  0  0
   -6.1782   -6.0248  -21.0011 O   0  0  0  0  0
   -6.0268   -3.4613  -21.5727 O   0  0  0  0  0
   -7.8925   -4.1707  -19.8201 O   0  0  0  0  0
   -6.1816   -1.7927  -19.1650 O   0  0  0  0  0
   -9.8821   -0.1869  -23.5002 O   0  0  0  0  0
   -9.1952   -0.8879  -17.5850 O   0  0  0  0  0
   -7.0929    0.2670  -16.6185 O   0  0  0  0  0
   -8.0938   -4.7535  -22.5128 O   0  0  0  0  0
   -6.1773   -5.7619  -18.2324 O   0  0  0  0  0
   -1.7767   -9.5521  -16.3621 C   0  0  0  0  0
   -2.7265   -8.3886  -18.0300 C   0  0  0  0  0
   -3.5746   -9.6344  -17.9181 C   0  0  0  0  0
   -2.7796  -10.5080  -16.9805 C   0  0  0  0  0
   -3.5959   -7.1634  -18.2530 C   0  0  0  0  0
   -8.2141   -2.8146  -19.9098 C   0  0  0  0  0
   -7.5081   -2.0599  -18.7994 C   0  0  0  0  0
   -5.8041   -0.6942  -18.3685 C   0  0  0  0  0
   -3.5162    0.2507  -18.6976 C   0  0  0  0  0
   -2.9037    1.1455  -19.5073 C   0  0  0  0  0
   -4.9258    0.9776  -20.1104 C   0  0  0  0  0
   -6.1900    1.2757  -20.7939 C   0  0  0  0  0
   -6.8498    0.2919  -21.5419 C   0  0  0  0  0
   -8.0541    0.5899  -22.1999 C   0  0  0  0  0
   -8.5948    1.8816  -22.0870 C   0  0  0  0  0
   -7.9324    2.8662  -21.3505 C   0  0  0  0  0
   -6.7262    2.5645  -20.7145 C   0  0  0  0  0
   -8.7385   -0.4233  -23.0262 C   0  0  0  0  0
   -8.0941   -1.7315  -23.3278 C   0  0  0  0  0
   -1.5662    1.4595  -19.3070 C   0  0  0  0  0
   -1.5578   -0.0584  -17.4646 C   0  0  0  0  0
   -7.0375    0.1176  -18.0068 C   0  0  0  0  0
   -8.1752   -0.7352  -18.5270 C   0  0  0  0  0
   -5.1994   -5.8619  -19.6131 P   0  0  0  0  0
   -7.0131   -4.5585  -21.2241 P   0  0  0  0  0
   -4.7997    0.1218  -19.0528 N   0  0  0  0  0
   -3.7720    1.6388  -20.4119 N   0  0  0  0  0
   -0.9138    0.8419  -18.2773 N   0  0  0  0  0
   -2.8771   -0.3609  -17.6696 N   0  0  0  0  0
   -0.8907    2.4012  -20.1357 N   0  0  0  0  0
 16  1  1  0  0  0
 16  2  1  0  0  0
 17  2  1  0  0  0
 17 18  1  0  0  0
 17 20  1  0  0  0
 18  3  1  0  0  0
 18 19  1  0  0  0
 19  4  1  0  0  0
 19 16  1  0  0  0
 20  5  1  0  0  0
 21  9  1  0  0  0
 22 21  1  0  0  0
 22 10  1  0  0  0
 23 10  1  0  0  0
 23 41  1  0  0  0
 23 37  1  0  0  0
 24 44  1  0  0  0
 25 42  1  0  0  0
 25 35  1  0  0  0
 26 27  1  0  0  0
 26 41  1  0  0  0
 28 29  1  0  0  0
 29 33  1  0  0  0
 30 31  1  0  0  0
 32 27  1  0  0  0
 34 33  1  0  0  0
 35 45  1  0  0  0
 36 43  1  0  0  0
 37 38  1  0  0  0
 37 13  1  0  0  0
 38 12  1  0  0  0
 38 22  1  0  0  0
 39  5  1  0  0  0
 39  7  1  0  0  0
 39 15  1  0  0  0
 40  7  1  0  0  0
 40  9  1  0  0  0
 40 14  1  0  0  0
 41 24  1  0  0  0
 24 25  2  0  0  0
 26 42  2  0  0  0
 27 28  2  0  0  0
 29 30  2  0  0  0
 31 32  2  0  0  0
 33 11  2  0  0  0
 35 43  2  0  0  0
 36 44  2  0  0  0
 39  6  2  0  0  0
 40  8  2  0  0  0
M  END
> <rmsd>
0.768900394

$$$$
CHEMBL3904899 PubChem-87279358


 66 74  0  0  0  0  0  0  0  0999 V2000
    2.0748   11.2273  -20.6977 C   0  0  0  0  0
    2.0273   11.1030  -22.2145 C   0  0  0  0  0
    1.7372    9.6747  -22.6441 C   0  0  0  0  0
    0.3604    9.2105  -22.1760 C   0  0  0  0  0
   -0.7424   10.2432  -22.3170 C   0  0  0  0  0
   -0.4625   11.5555  -22.5493 C   0  0  0  0  0
    0.9595   12.0156  -22.8022 C   0  0  0  0  0
   -1.5155   12.6000  -22.6845 C   0  0  0  0  0
   -1.3493   13.6346  -23.6203 C   0  0  0  0  0
   -2.3097   14.6421  -23.7483 C   0  0  0  0  0
   -3.4454   14.6313  -22.9352 C   0  0  0  0  0
   -3.6155   13.6200  -21.9875 C   0  0  0  0  0
   -2.6517   12.6150  -21.8579 C   0  0  0  0  0
   -2.1687    9.7730  -22.1429 C   0  0  0  0  0
   -3.6409    8.0503  -22.7262 C   0  0  0  0  0
   -3.8356    6.5444  -22.8717 C   0  0  0  0  0
   -2.3221    6.2695  -20.8937 C   0  0  0  0  0
   -2.2064    7.7930  -20.8632 C   0  0  0  0  0
   -4.3697    4.8079  -21.1197 C   0  0  0  0  0
   -3.9274    3.9797  -20.0773 C   0  0  0  0  0
   -4.6992    2.8974  -19.6240 C   0  0  0  0  0
   -5.9631    2.6587  -20.2099 C   0  0  0  0  0
   -6.3957    3.4820  -21.2607 C   0  0  0  0  0
   -5.6099    4.5416  -21.7121 C   0  0  0  0  0
   -6.8434    1.5513  -19.7717 C   0  0  0  0  0
   -7.0072   -1.8810  -18.6549 C   0  0  0  0  0
   -7.7963   -2.6151  -19.5446 C   0  0  0  0  0
   -7.3197   -3.8044  -20.1210 C   0  0  0  0  0
   -6.0278   -4.2648  -19.7712 C   0  0  0  0  0
   -5.2449   -3.5148  -18.8788 C   0  0  0  0  0
   -5.7298   -2.3309  -18.3273 C   0  0  0  0  0
   -4.2580   -6.0890  -19.8700 C   0  0  0  0  0
   -4.4260   -6.7570  -18.5133 C   0  0  0  0  0
   -3.1263   -6.6905  -17.6946 C   0  0  0  0  0
   -2.5926   -8.8299  -18.1053 C   0  0  0  0  0
   -3.8138   -9.0641  -19.0018 C   0  0  0  0  0
   -5.5937   -8.5716  -17.4313 C   0  0  0  0  0
   -6.1538   -9.9682  -17.5664 C   0  0  0  0  0
   -7.6471   -9.7609  -17.5748 C   0  0  0  0  0
   -6.8339   -7.7232  -17.1783 C   0  0  0  0  0
   -2.8906    1.7890  -18.2830 C   0  0  0  0  0
   -2.6099    1.0471  -17.1123 C   0  0  0  0  0
   -0.3144    1.1097  -17.5972 C   0  0  0  0  0
   -0.5365    1.8247  -18.7307 C   0  0  0  0  0
   -1.8210    2.1861  -19.1157 C   0  0  0  0  0
    0.6736    2.0368  -19.3431 C   0  0  0  0  0
    1.5892    1.3989  -18.4995 C   0  0  0  0  0
    3.3721   11.5159  -22.7731 C   0  0  0  0  0
   -4.6505   15.8909  -23.0989 Cl  0  0  0  0  0
   -2.2966    8.3231  -22.2246 N   0  0  0  0  0
   -3.5516    5.8940  -21.5920 N   0  0  0  0  0
   -6.6670    0.9424  -18.4900 N   0  0  0  0  0
   -5.5235   -5.5027  -20.2917 N   0  0  0  0  0
   -4.9204   -8.1427  -18.6692 N   0  0  0  0  0
   -8.1644   -4.5279  -21.0350 N   0  0  0  0  0
   -1.3253    0.7158  -16.7827 N   0  0  0  0  0
    0.9823    0.8248  -17.4291 N   0  0  0  0  0
   -7.7686    1.1528  -20.5298 O   0  0  0  0  0
   -9.0575   -0.1889  -18.2916 O   0  0  0  0  0
   -7.4949   -0.4976  -16.4410 O   0  0  0  0  0
   -2.1399   -7.5120  -18.2652 O   0  0  0  0  0
   -7.9206   -8.5646  -16.8957 O   0  0  0  0  0
   -9.3891   -4.2877  -21.0795 O   0  0  0  0  0
   -7.6308   -5.4116  -21.9458 O   0  0  0  0  0
   -4.2322    2.0530  -18.6012 O   0  0  0  0  0
   -7.6106   -0.3997  -17.9363 S   0  0  0  0  0
  1  2  1  0  0  0
  2  3  1  0  0  0
  2 48  1  0  0  0
  3  4  1  0  0  0
  4  5  1  0  0  0
  6  8  1  0  0  0
  7  6  1  0  0  0
  7  2  1  0  0  0
  9 10  1  0  0  0
 11 12  1  0  0  0
 11 49  1  0  0  0
 13  8  1  0  0  0
 14  5  1  0  0  0
 14 50  1  0  0  0
 15 50  1  0  0  0
 15 16  1  0  0  0
 16 51  1  0  0  0
 17 51  1  0  0  0
 17 18  1  0  0  0
 18 50  1  0  0  0
 20 21  1  0  0  0
 21 65  1  0  0  0
 22 23  1  0  0  0
 22 25  1  0  0  0
 24 19  1  0  0  0
 25 52  1  0  0  0
 27 28  1  0  0  0
 28 55  1  0  0  0
 29 30  1  0  0  0
 29 53  1  0  0  0
 31 26  1  0  0  0
 32 53  1  0  0  0
 33 32  1  0  0  0
 33 34  1  0  0  0
 33 54  1  0  0  0
 34 61  1  0  0  0
 35 61  1  0  0  0
 35 36  1  0  0  0
 36 54  1  0  0  0
 37 54  1  0  0  0
 37 38  1  0  0  0
 38 39  1  0  0  0
 39 62  1  0  0  0
 40 62  1  0  0  0
 40 37  1  0  0  0
 41 65  1  0  0  0
 42 56  1  0  0  0
 43 44  1  0  0  0
 44 46  1  0  0  0
 45 41  1  0  0  0
 47 57  1  0  0  0
 51 19  1  0  0  0
 55 64  1  0  0  0
 57 43  1  0  0  0
 66 52  1  0  0  0
 66 26  1  0  0  0
  5  6  2  0  0  0
  8  9  2  0  0  0
 10 11  2  0  0  0
 12 13  2  0  0  0
 19 20  2  0  0  0
 21 22  2  0  0  0
 23 24  2  0  0  0
 25 58  2  0  0  0
 26 27  2  0  0  0
 28 29  2  0  0  0
 30 31  2  0  0  0
 41 42  2  0  0  0
 43 56  2  0  0  0
 44 45  2  0  0  0
 46 47  2  0  0  0
 55 63  2  0  0  0
 66 59  2  0  0  0
 66 60  2  0  0  0
M  CHG  2  55   1  64  -1
M  END
> <rmsd>
0.745450079

$$$$
CHEMBL2059854 PubChem-70688554


 91102  0  0  0  0  0  0  0  0999 V2000
   -6.6980   -5.3770  -21.7143 P   0  0  0  0  0
   -2.7978  -12.3986  -19.1207 P   0  0  0  0  0
   -7.4251  -19.5815  -18.9112 P   0  0  0  0  0
   -7.2654   -0.5262  -16.3397 P   0  0  0  0  0
   -8.1541   -5.2472  -22.0912 O   0  0  0  0  0
   -6.5101   -6.6879  -20.6470 O   0  0  0  0  0
   -3.2968  -10.7939  -18.8597 O   0  0  0  0  0
   -2.2925  -12.5911  -20.5360 O   0  0  0  0  0
   -1.5385  -12.7430  -18.0432 O   0  0  0  0  0
   -4.1043  -13.4381  -18.8032 O   0  0  0  0  0
   -6.6608  -18.2351  -18.2141 O   0  0  0  0  0
   -6.3960  -20.6445  -19.2320 O   0  0  0  0  0
   -8.2363  -19.1407  -20.3320 O   0  0  0  0  0
   -8.5467  -20.2067  -17.8087 O   0  0  0  0  0
   -4.2910  -16.6346  -17.8812 O   0  0  0  0  0
   -5.8038  -14.6241  -20.3557 O   0  0  0  0  0
   -4.5079   -8.3395  -18.9161 O   0  0  0  0  0
   -6.4995   -9.0925  -21.6249 O   0  0  0  0  0
   -4.8107   -3.9289  -20.5958 O   0  0  0  0  0
   -5.9545   -4.6755  -16.7932 O   0  0  0  0  0
   -5.9853   -1.1772  -17.2488 O   0  0  0  0  0
   -7.0926    0.9745  -16.2660 O   0  0  0  0  0
   -8.6308   -0.7106  -18.5670 O   0  0  0  0  0
   -9.1901    0.8561  -22.2843 O   0  0  0  0  0
   -6.2403    0.6283  -20.4639 O   0  0  0  0  0
   -8.5595    2.0955  -19.2227 O   0  0  0  0  0
   -7.3155   -1.1510  -14.7647 O   0  0  0  0  0
   -3.4475   -2.8961  -17.5245 O   0  0  0  0  0
   -5.7802   -5.5960  -23.1217 O   0  0  0  0  0
   -5.2223   -7.1883  -20.8763 C   0  0  0  0  0
   -5.2510   -8.6647  -21.1631 C   0  0  0  0  0
   -4.9201   -9.3204  -19.8428 C   0  0  0  0  0
   -3.8153  -10.3392  -20.0724 C   0  0  0  0  0
   -3.6935  -14.7194  -19.1960 C   0  0  0  0  0
   -4.8172  -15.4765  -19.8542 C   0  0  0  0  0
   -5.3606  -16.3126  -18.7279 C   0  0  0  0  0
   -6.0064  -17.5791  -19.2601 C   0  0  0  0  0
   -3.3930  -15.5543  -17.9580 C   0  0  0  0  0
   -1.0355  -15.7425  -17.1204 C   0  0  0  0  0
   -0.1376  -17.0131  -18.5683 C   0  0  0  0  0
    0.6905  -17.7792  -19.3755 C   0  0  0  0  0
   -1.1862  -18.1726  -20.7997 C   0  0  0  0  0
   -1.4381  -16.8502  -18.8951 C   0  0  0  0  0
   -4.4149   -7.1053  -19.5968 C   0  0  0  0  0
   -2.5484   -5.8861  -20.7938 C   0  0  0  0  0
   -0.8357   -6.5199  -19.7190 C   0  0  0  0  0
    0.4213   -6.7385  -19.1728 C   0  0  0  0  0
   -0.5955   -8.2067  -17.5926 C   0  0  0  0  0
   -1.9148   -7.1413  -19.1954 C   0  0  0  0  0
   -6.1732   -3.8503  -20.8842 C   0  0  0  0  0
   -4.5746   -2.9459  -19.6337 C   0  0  0  0  0
   -4.4331   -3.5829  -18.2598 C   0  0  0  0  0
   -5.7622   -3.5046  -17.5314 C   0  0  0  0  0
   -5.5818   -2.3494  -16.5974 C   0  0  0  0  0
   -8.8168   -0.9062  -17.1992 C   0  0  0  0  0
   -9.7439    0.0190  -18.9872 C   0  0  0  0  0
   -9.3226    1.1440  -19.9232 C   0  0  0  0  0
   -8.5091    0.6052  -21.0921 C   0  0  0  0  0
   -7.2407    1.4041  -21.0564 C   0  0  0  0  0
   -7.6219    2.5659  -20.1546 C   0  0  0  0  0
   -6.1935    3.2194  -18.1591 C   0  0  0  0  0
   -4.6098    4.2731  -19.1018 C   0  0  0  0  0
   -3.5025    5.0305  -19.4492 C   0  0  0  0  0
   -4.1780    4.8419  -21.7292 C   0  0  0  0  0
   -5.4553    3.8364  -20.0580 C   0  0  0  0  0
   -4.0785   -2.3463  -16.3929 C   0  0  0  0  0
   -3.3991   -0.4750  -14.8579 C   0  0  0  0  0
   -2.7034    1.0015  -16.2156 C   0  0  0  0  0
   -2.1797    2.1109  -16.8641 C   0  0  0  0  0
   -2.5228    0.9751  -18.9349 C   0  0  0  0  0
   -3.1105   -0.0682  -16.9309 C   0  0  0  0  0
   -2.0228  -16.0478  -17.9963 N   0  0  0  0  0
    0.1527  -16.3278  -17.4465 N   0  0  0  0  0
    2.0689  -17.9605  -19.0742 N   0  0  0  0  0
    0.1384  -18.3532  -20.4893 N   0  0  0  0  0
   -1.9905  -17.4071  -19.9980 N   0  0  0  0  0
   -3.0129   -6.7718  -19.8700 N   0  0  0  0  0
   -1.1992   -5.7146  -20.7331 N   0  0  0  0  0
    1.5810   -6.0962  -19.6972 N   0  0  0  0  0
    0.5170   -7.5903  -18.1107 N   0  0  0  0  0
   -1.8307   -7.9802  -18.1327 N   0  0  0  0  0
   -6.4612    3.1627  -19.4905 N   0  0  0  0  0
   -5.0480    3.9016  -17.8825 N   0  0  0  0  0
   -2.5931    5.5169  -18.4687 N   0  0  0  0  0
   -3.3028    5.2953  -20.7749 N   0  0  0  0  0
   -5.2732    4.1045  -21.3735 N   0  0  0  0  0
   -3.5572   -1.0157  -16.0932 N   0  0  0  0  0
   -2.8719    0.7804  -14.8981 N   0  0  0  0  0
   -1.7260    3.2491  -16.1394 N   0  0  0  0  0
   -2.0964    2.0717  -18.2282 N   0  0  0  0  0
   -3.0382   -0.1136  -18.2844 N   0  0  0  0  0
  1  6  1  0  0  0
  1 50  1  0  0  0
  1 29  1  0  0  0
  2  7  1  0  0  0
  2  9  1  0  0  0
  2 10  1  0  0  0
  3 11  1  0  0  0
  3 13  1  0  0  0
  3 14  1  0  0  0
  4 21  1  0  0  0
  4 55  1  0  0  0
  4 27  1  0  0  0
 30  6  1  0  0  0
 30 31  1  0  0  0
 31 32  1  0  0  0
 31 18  1  0  0  0
 32 33  1  0  0  0
 32 17  1  0  0  0
 33  7  1  0  0  0
 34 10  1  0  0  0
 34 35  1  0  0  0
 35 36  1  0  0  0
 35 16  1  0  0  0
 36 37  1  0  0  0
 36 15  1  0  0  0
 37 11  1  0  0  0
 38 15  1  0  0  0
 38 72  1  0  0  0
 38 34  1  0  0  0
 40 73  1  0  0  0
 41 74  1  0  0  0
 41 75  1  0  0  0
 42 76  1  0  0  0
 43 72  1  0  0  0
 43 40  1  0  0  0
 44 17  1  0  0  0
 44 77  1  0  0  0
 44 30  1  0  0  0
 46 78  1  0  0  0
 47 79  1  0  0  0
 47 80  1  0  0  0
 48 81  1  0  0  0
 49 77  1  0  0  0
 49 46  1  0  0  0
 50 19  1  0  0  0
 51 19  1  0  0  0
 52 51  1  0  0  0
 52 53  1  0  0  0
 52 28  1  0  0  0
 53 20  1  0  0  0
 53 54  1  0  0  0
 54 21  1  0  0  0
 54 66  1  0  0  0
 55 23  1  0  0  0
 56 23  1  0  0  0
 57 56  1  0  0  0
 57 58  1  0  0  0
 57 26  1  0  0  0
 58 24  1  0  0  0
 58 59  1  0  0  0
 59 25  1  0  0  0
 59 60  1  0  0  0
 60 26  1  0  0  0
 60 82  1  0  0  0
 62 83  1  0  0  0
 63 84  1  0  0  0
 63 85  1  0  0  0
 64 86  1  0  0  0
 65 82  1  0  0  0
 65 62  1  0  0  0
 66 28  1  0  0  0
 66 87  1  0  0  0
 68 88  1  0  0  0
 69 89  1  0  0  0
 69 90  1  0  0  0
 70 91  1  0  0  0
 71 87  1  0  0  0
 71 68  1  0  0  0
 72 39  1  0  0  0
 77 45  1  0  0  0
 82 61  1  0  0  0
 87 67  1  0  0  0
  1  5  2  0  0  0
  2  8  2  0  0  0
  3 12  2  0  0  0
  4 22  2  0  0  0
 39 73  2  0  0  0
 40 41  2  0  0  0
 42 75  2  0  0  0
 43 76  2  0  0  0
 45 78  2  0  0  0
 46 47  2  0  0  0
 48 80  2  0  0  0
 49 81  2  0  0  0
 61 83  2  0  0  0
 62 63  2  0  0  0
 64 85  2  0  0  0
 65 86  2  0  0  0
 67 88  2  0  0  0
 68 69  2  0  0  0
 70 90  2  0  0  0
 71 91  2  0  0  0
M  END
> <rmsd>
0.658251524

$$$$
CHEMBL252167


 31 33  0  0  0  0  0  0  0  0999 V2000
   -3.9019    0.3477  -20.1528 N   0  0  0  0  0
   -2.1044    1.5476  -21.1496 N   0  0  0  0  0
   -4.0450    0.6176  -17.7512 N   0  0  0  0  0
   -2.2691    2.0022  -17.5285 N   0  0  0  0  0
   -3.1879    0.7119  -21.2615 C   0  0  0  0  0
   -1.7096    2.0365  -19.9365 C   0  0  0  0  0
   -2.4391    1.6593  -18.8190 C   0  0  0  0  0
   -3.5004    0.8366  -18.9538 C   0  0  0  0  0
   -3.2823    1.3439  -16.8958 C   0  0  0  0  0
   -5.2276   -0.1631  -17.4108 C   0  0  0  0  0
   -6.4984   -1.7712  -18.3150 C   0  0  0  0  0
   -7.2674   -0.5035  -18.5894 C   0  0  0  0  0
   -6.4822    0.5588  -17.8594 C   0  0  0  0  0
   -6.5472   -2.6730  -19.5346 C   0  0  0  0  0
   -0.6140    2.8837  -19.8346 O   0  0  0  0  0
   -5.1692   -1.4275  -18.0235 O   0  0  0  0  0
   -7.1638    1.0364  -16.7367 O   0  0  0  0  0
   -8.5748   -0.6224  -18.1102 O   0  0  0  0  0
   -5.9263   -3.8911  -19.2490 O   0  0  0  0  0
   -7.3812   -5.0058  -21.1461 O   0  0  0  0  0
   -6.4305   -6.6214  -19.2759 O   0  0  0  0  0
   -5.7299   -7.3553  -21.6948 O   0  0  0  0  0
   -4.2305   -8.2670  -19.7691 O   0  0  0  0  0
   -2.3681   -8.7406  -17.7977 O   0  0  0  0  0
   -3.5935   -6.2858  -17.8600 O   0  0  0  0  0
   -4.1378   -5.6229  -20.5690 O   0  0  0  0  0
   -8.4745   -4.8497  -18.7816 O   0  0  0  0  0
   -7.0539   -5.0874  -19.6698 P   0  0  0  0  0
   -5.1533   -6.9617  -20.3537 P   0  0  0  0  0
   -3.8157   -7.9402  -18.1476 P   0  0  0  0  0
   -5.0466   -8.5447  -17.0946 S   0  0  0  0  0
  3  9  1  0  0  0
  5  2  1  0  0  0
  6 15  1  0  0  0
  6  7  1  0  0  0
  7  4  1  0  0  0
  8  3  1  0  0  0
  8  1  1  0  0  0
 10  3  1  0  0  0
 10 16  1  0  0  0
 11 16  1  0  0  0
 11 12  1  0  0  0
 11 14  1  0  0  0
 12 13  1  0  0  0
 12 18  1  0  0  0
 13 17  1  0  0  0
 13 10  1  0  0  0
 14 19  1  0  0  0
 28 19  1  0  0  0
 28 21  1  0  0  0
 28 27  1  0  0  0
 29 21  1  0  0  0
 29 23  1  0  0  0
 29 26  1  0  0  0
 30 23  1  0  0  0
 30 24  1  0  0  0
 30 25  1  0  0  0
  5  1  2  0  0  0
  6  2  2  0  0  0
  7  8  2  0  0  0
  9  4  2  0  0  0
 28 20  2  0  0  0
 29 22  2  0  0  0
 30 31  2  0  0  0
M  END
> <rmsd>
0.757048905

$$$$
CHEMBL4595203 PubChem-155524007


116124  0  0  0  0  0  0  0  0999 V2000
   -7.1438  -15.6695  -20.4342 O   0  0  0  0  0
   -7.3304  -13.5468  -19.2378 O   0  0  0  0  0
   -5.0909  -14.0393  -20.5913 O   0  0  0  0  0
   -4.0711   -7.6094  -19.5663 O   0  0  0  0  0
   -3.2278   -5.4348  -18.3007 O   0  0  0  0  0
   -2.2469   -7.5956  -17.6684 O   0  0  0  0  0
   -1.5465   -6.5452  -19.9322 O   0  0  0  0  0
   -5.8641   -5.9691  -18.2979 O   0  0  0  0  0
   -6.5536   -9.9100  -18.1926 O   0  0  0  0  0
  -10.5428   -9.3879  -15.6015 O   0  0  0  0  0
  -11.1337  -11.5993  -16.9006 O   0  0  0  0  0
  -12.0874  -11.2802  -14.6629 O   0  0  0  0  0
   -9.5644  -11.8712  -14.8458 O   0  0  0  0  0
   -8.0569   -5.4831  -16.9954 O   0  0  0  0  0
   -9.2909   -4.5223  -19.6203 O   0  0  0  0  0
   -6.7567   -1.8113  -16.9384 O   0  0  0  0  0
   -8.4887   -0.3604  -18.2815 O   0  0  0  0  0
   -9.2340   -1.3753  -16.1728 O   0  0  0  0  0
   -7.6424    0.6757  -16.0494 O   0  0  0  0  0
   -4.9690   -0.2528  -15.6237 O   0  0  0  0  0
   -2.7197    1.0655  -15.4081 O   0  0  0  0  0
   -2.1539    4.6134  -13.7381 O   0  0  0  0  0
   -1.2957    6.5618  -15.2059 O   0  0  0  0  0
    0.0805    9.0026  -15.6016 O   0  0  0  0  0
   -1.1241   10.2205  -17.5946 O   0  0  0  0  0
   -1.0222    7.7775  -17.6605 O   0  0  0  0  0
   -2.6655    8.9053  -15.9889 O   0  0  0  0  0
    1.0708    7.9008  -12.2668 O   0  0  0  0  0
   -0.2316    4.3755   -9.3093 O   0  0  0  0  0
    0.4867    6.2691   -7.6358 O   0  0  0  0  0
    2.2408    4.7969   -8.5395 O   0  0  0  0  0
    0.6336    3.8354   -6.7373 O   0  0  0  0  0
    4.7324   12.9314  -13.6954 O   0  0  0  0  0
    5.5656   15.3711  -13.2407 O   0  0  0  0  0
    4.0007   14.3826  -11.6302 O   0  0  0  0  0
    3.0757   15.1288  -13.9458 O   0  0  0  0  0
    3.4564   12.0903  -16.0081 O   0  0  0  0  0
    3.1416   12.6381  -18.5506 O   0  0  0  0  0
    1.1842   11.8496  -17.3021 O   0  0  0  0  0
    3.0384   10.1204  -17.9061 O   0  0  0  0  0
   -4.0263   -1.4307  -19.3346 O   0  0  0  0  0
    0.0460    1.0760  -19.3682 O   0  0  0  0  0
   -0.2375    0.0137  -21.7841 O   0  0  0  0  0
   -0.7766    2.3931  -21.4729 O   0  0  0  0  0
    1.7264    1.6946  -21.4747 O   0  0  0  0  0
   -8.0983   -5.6360  -21.9263 O   0  0  0  0  0
   -9.0013   -7.3371  -20.1267 O   0  0  0  0  0
   -6.9960   -7.9599  -21.4022 O   0  0  0  0  0
   -9.2904   -8.0309  -22.6129 O   0  0  0  0  0
   -2.4755  -13.3704  -21.7735 O   0  0  0  0  0
   -2.9105  -15.7615  -20.7450 O   0  0  0  0  0
   -4.0548  -15.1938  -22.8504 O   0  0  0  0  0
   -1.5122  -15.6823  -22.9304 O   0  0  0  0  0
   -5.7450  -15.3825  -18.2614 O   0  0  0  0  0
   -6.3804  -14.6433  -19.6353 S   0  0  0  0  0
   -2.7801   -6.7775  -18.8126 S   0  0  0  0  0
  -10.8721  -11.0627  -15.5202 S   0  0  0  0  0
   -8.0768   -0.7217  -16.8761 S   0  0  0  0  0
   -1.1797    8.9725  -16.7629 S   0  0  0  0  0
    0.8156    4.8656   -8.0518 S   0  0  0  0  0
    4.3663   14.4793  -13.0838 S   0  0  0  0  0
    2.6711   11.7055  -17.4724 S   0  0  0  0  0
    0.1523    1.2795  -21.0632 S   0  0  0  0  0
   -8.3270   -7.2658  -21.4681 S   0  0  0  0  0
   -2.7900  -15.0304  -22.0530 S   0  0  0  0  0
   -4.5036  -12.7826  -20.4245 C   0  0  0  0  0
   -5.1768  -11.7874  -19.6992 C   0  0  0  0  0
   -4.6679  -10.4923  -19.5706 C   0  0  0  0  0
   -5.4801   -9.4752  -18.8532 C   0  0  0  0  0
   -5.1818   -8.0925  -18.8650 C   0  0  0  0  0
   -6.0702   -7.2093  -18.2346 C   0  0  0  0  0
   -7.2056   -7.7108  -17.5667 C   0  0  0  0  0
   -8.1768   -6.8815  -16.9464 C   0  0  0  0  0
   -9.2751   -7.4721  -16.2990 C   0  0  0  0  0
   -9.4389   -8.8548  -16.2706 C   0  0  0  0  0
   -8.5023   -9.6670  -16.9144 C   0  0  0  0  0
   -7.4009   -9.1081  -17.5663 C   0  0  0  0  0
   -9.0604   -4.5978  -16.5068 C   0  0  0  0  0
  -10.2877   -4.6127  -17.4123 C   0  0  0  0  0
  -10.0444   -3.7843  -18.6687 C   0  0  0  0  0
   -7.9882   -4.1623  -19.9907 C   0  0  0  0  0
   -7.2653   -3.2241  -19.2422 C   0  0  0  0  0
   -5.9608   -2.8482  -19.6024 C   0  0  0  0  0
   -5.1604   -1.8776  -18.8026 C   0  0  0  0  0
   -5.5378   -1.4324  -17.5139 C   0  0  0  0  0
   -4.6632   -0.6019  -16.7966 C   0  0  0  0  0
   -3.4576   -0.1782  -17.3867 C   0  0  0  0  0
   -2.5063    0.6383  -16.7233 C   0  0  0  0  0
   -1.7340    1.7698  -14.6621 C   0  0  0  0  0
   -2.3138    2.2187  -13.3316 C   0  0  0  0  0
   -3.0565    3.5400  -13.4920 C   0  0  0  0  0
   -1.2813    5.1451  -12.7743 C   0  0  0  0  0
   -0.5173    6.3107  -13.0475 C   0  0  0  0  0
   -0.5837    7.0105  -14.2681 C   0  0  0  0  0
    0.1677    8.1989  -14.4452 C   0  0  0  0  0
    1.0461    8.5952  -13.4039 C   0  0  0  0  0
    0.3387    6.8191  -12.0475 C   0  0  0  0  0
    0.4423    6.1766  -10.8132 C   0  0  0  0  0
   -0.3103    5.0302  -10.5388 C   0  0  0  0  0
   -1.1661    4.5291  -11.5165 C   0  0  0  0  0
    1.9624    9.7659  -13.5016 C   0  0  0  0  0
    2.2646   10.3810  -14.7235 C   0  0  0  0  0
    3.1769   11.4470  -14.7960 C   0  0  0  0  0
    3.8090   11.8901  -13.6277 C   0  0  0  0  0
    3.5123   11.2897  -12.4034 C   0  0  0  0  0
    2.6004   10.2321  -12.3404 C   0  0  0  0  0
   -1.3419    1.0246  -17.4070 C   0  0  0  0  0
   -1.1137    0.6353  -18.7268 C   0  0  0  0  0
   -2.0451   -0.1839  -19.3711 C   0  0  0  0  0
   -3.1953   -0.6078  -18.7095 C   0  0  0  0  0
   -5.3920   -3.4222  -20.7477 C   0  0  0  0  0
   -6.1043   -4.3550  -21.5045 C   0  0  0  0  0
   -7.3961   -4.7345  -21.1280 C   0  0  0  0  0
   -3.4363  -10.2003  -20.1660 C   0  0  0  0  0
   -2.7432  -11.1773  -20.8793 C   0  0  0  0  0
   -3.2565  -12.4703  -21.0240 C   0  0  0  0  0
 55  3  1  0  0  0
 55 54  1  0  0  0
 56  4  1  0  0  0
 56  7  1  0  0  0
 57 10  1  0  0  0
 57 13  1  0  0  0
 58 16  1  0  0  0
 58 19  1  0  0  0
 59 24  1  0  0  0
 59 27  1  0  0  0
 60 29  1  0  0  0
 60 32  1  0  0  0
 61 33  1  0  0  0
 61 36  1  0  0  0
 62 37  1  0  0  0
 62 40  1  0  0  0
 63 42  1  0  0  0
 63 45  1  0  0  0
 64 46  1  0  0  0
 64 49  1  0  0  0
 65 50  1  0  0  0
 65 53  1  0  0  0
 66  3  1  0  0  0
 67 68  1  0  0  0
 68 69  1  0  0  0
 69  9  1  0  0  0
 70  4  1  0  0  0
 70 71  1  0  0  0
 71 72  1  0  0  0
 73 74  1  0  0  0
 73 14  1  0  0  0
 75 76  1  0  0  0
 75 10  1  0  0  0
 77  9  1  0  0  0
 77 72  1  0  0  0
 78 14  1  0  0  0
 78 79  1  0  0  0
 79 80  1  0  0  0
 80 15  1  0  0  0
 81 15  1  0  0  0
 82 83  1  0  0  0
 83 84  1  0  0  0
 84 41  1  0  0  0
 85 16  1  0  0  0
 85 86  1  0  0  0
 86 87  1  0  0  0
 88 21  1  0  0  0
 88107  1  0  0  0
 89 21  1  0  0  0
 89 90  1  0  0  0
 90 91  1  0  0  0
 91 22  1  0  0  0
 92 22  1  0  0  0
 93 94  1  0  0  0
 94 95  1  0  0  0
 95 24  1  0  0  0
 96 28  1  0  0  0
 96101  1  0  0  0
 97 28  1  0  0  0
 97 93  1  0  0  0
 98 99  1  0  0  0
 99 29  1  0  0  0
100 92  1  0  0  0
102103  1  0  0  0
103 37  1  0  0  0
104105  1  0  0  0
104 33  1  0  0  0
106101  1  0  0  0
108109  1  0  0  0
108 42  1  0  0  0
110 41  1  0  0  0
110 87  1  0  0  0
111112  1  0  0  0
113 46  1  0  0  0
113 81  1  0  0  0
114115  1  0  0  0
116 50  1  0  0  0
116 66  1  0  0  0
 55  1  2  0  0  0
 55  2  2  0  0  0
 56  5  2  0  0  0
 56  6  2  0  0  0
 57 11  2  0  0  0
 57 12  2  0  0  0
 58 17  2  0  0  0
 58 18  2  0  0  0
 59 25  2  0  0  0
 59 26  2  0  0  0
 60 30  2  0  0  0
 60 31  2  0  0  0
 61 34  2  0  0  0
 61 35  2  0  0  0
 62 38  2  0  0  0
 62 39  2  0  0  0
 63 43  2  0  0  0
 63 44  2  0  0  0
 64 47  2  0  0  0
 64 48  2  0  0  0
 65 51  2  0  0  0
 65 52  2  0  0  0
 66 67  2  0  0  0
 68114  2  0  0  0
 69 70  2  0  0  0
 71  8  2  0  0  0
 72 73  2  0  0  0
 74 75  2  0  0  0
 76 77  2  0  0  0
 81 82  2  0  0  0
 83111  2  0  0  0
 84 85  2  0  0  0
 86 20  2  0  0  0
 87 88  2  0  0  0
 92 93  2  0  0  0
 94 23  2  0  0  0
 95 96  2  0  0  0
 97 98  2  0  0  0
 99100  2  0  0  0
101102  2  0  0  0
103104  2  0  0  0
105106  2  0  0  0
107108  2  0  0  0
109110  2  0  0  0
112113  2  0  0  0
115116  2  0  0  0
M  END
> <rmsd>
0.664813519

$$$$
CHEMBL3143462 PubChem-90663468


 93104  0  0  0  0  0  0  0  0999 V2000
   -4.5249    2.1335  -16.9234 N   0  0  0  0  0
   -3.4925    0.7486  -15.4417 N   0  0  0  0  0
   -3.2322    1.4907  -18.8591 N   0  0  0  0  0
   -1.5755   -0.1562  -18.4087 N   0  0  0  0  0
   -1.2292   -1.0451  -16.1837 N   0  0  0  0  0
   -2.9020   -3.1954  -20.3459 N   0  0  0  0  0
   -1.0292   -4.2625  -19.6171 N   0  0  0  0  0
   -3.9730   -2.9976  -18.1812 N   0  0  0  0  0
   -2.7043   -3.9100  -16.3860 N   0  0  0  0  0
   -0.5303   -4.9241  -16.7441 N   0  0  0  0  0
   -3.7962  -10.4091  -20.6599 N   0  0  0  0  0
   -4.0627  -12.4396  -21.6487 N   0  0  0  0  0
   -4.1742   -9.0764  -22.6452 N   0  0  0  0  0
   -4.6386  -10.3476  -24.5993 N   0  0  0  0  0
   -4.7493  -12.7702  -24.5466 N   0  0  0  0  0
   -2.0704  -15.5396  -22.0049 N   0  0  0  0  0
   -3.7773  -16.7554  -21.1082 N   0  0  0  0  0
   -2.9930  -15.4133  -24.2480 N   0  0  0  0  0
   -5.1016  -16.4878  -24.4960 N   0  0  0  0  0
   -6.1868  -17.6038  -22.6401 N   0  0  0  0  0
   -4.4580    1.6863  -15.6399 C   0  0  0  0  0
   -2.9515    0.6231  -16.6670 C   0  0  0  0  0
   -3.5696    1.4396  -17.5488 C   0  0  0  0  0
   -2.2234    0.6744  -19.2891 C   0  0  0  0  0
   -1.9162   -0.1942  -17.0906 C   0  0  0  0  0
   -5.4393    3.0984  -17.5247 C   0  0  0  0  0
   -6.8483    2.5710  -17.5132 C   0  0  0  0  0
   -6.0864   -1.0261  -19.3433 C   0  0  0  0  0
   -5.5636   -1.1029  -20.7677 C   0  0  0  0  0
   -3.8464   -2.5219  -21.2346 C   0  0  0  0  0
   -1.7068   -3.7467  -20.6793 C   0  0  0  0  0
   -1.8597   -4.0050  -18.5874 C   0  0  0  0  0
   -2.9760   -3.3746  -19.0199 C   0  0  0  0  0
   -3.8297   -3.2738  -16.8486 C   0  0  0  0  0
   -1.7011   -4.2824  -17.2371 C   0  0  0  0  0
   -5.1076   -3.3327  -21.4000 C   0  0  0  0  0
   -4.9159   -6.2689  -19.9922 C   0  0  0  0  0
   -4.2474   -7.3125  -19.1032 C   0  0  0  0  0
   -3.5592   -9.3988  -19.6344 C   0  0  0  0  0
   -3.8009  -11.7554  -20.4998 C   0  0  0  0  0
   -4.2302  -11.4496  -22.5482 C   0  0  0  0  0
   -4.0688  -10.2419  -21.9620 C   0  0  0  0  0
   -4.4614   -9.1356  -23.9797 C   0  0  0  0  0
   -4.5322  -11.5205  -23.9036 C   0  0  0  0  0
   -2.4204   -8.4929  -20.0126 C   0  0  0  0  0
   -0.4281  -11.4104  -21.0912 C   0  0  0  0  0
    0.0308  -12.7602  -21.5999 C   0  0  0  0  0
   -0.8166  -14.7756  -22.0730 C   0  0  0  0  0
   -2.5722  -16.1629  -20.9017 C   0  0  0  0  0
   -4.0206  -16.4882  -22.4015 C   0  0  0  0  0
   -3.0074  -15.7718  -22.9411 C   0  0  0  0  0
   -4.0564  -15.7763  -25.0282 C   0  0  0  0  0
   -5.1035  -16.8603  -23.1826 C   0  0  0  0  0
   -0.5594  -14.1573  -23.4328 C   0  0  0  0  0
   -0.0088  -12.7873  -23.1116 C   0  0  0  0  0
   -2.7367   -7.2493  -19.2350 C   0  0  0  0  0
   -6.1778   -2.2796  -21.4936 C   0  0  0  0  0
   -7.6775    3.8267  -17.4408 C   0  0  0  0  0
   -6.6866    4.8867  -16.9936 C   0  0  0  0  0
   -7.1562    5.5142  -15.6967 C   0  0  0  0  0
   -5.6156    2.2728  -14.2353 Br  0  0  0  0  0
   -1.0398   -3.8317  -22.4655 Br  0  0  0  0  0
   -3.4675  -12.6326  -18.8396 Br  0  0  0  0  0
   -1.6879  -16.2215  -19.2062 Br  0  0  0  0  0
   -7.0987    1.8295  -18.6728 O   0  0  0  0  0
   -9.2360    0.5029  -17.9522 O   0  0  0  0  0
   -7.4690   -0.8238  -19.3421 O   0  0  0  0  0
   -4.1604   -1.2417  -20.7417 O   0  0  0  0  0
   -5.0274   -4.0910  -22.5748 O   0  0  0  0  0
   -7.0877   -5.3999  -21.5267 O   0  0  0  0  0
   -4.6996   -6.5740  -21.3420 O   0  0  0  0  0
   -4.7058   -8.6057  -19.4448 O   0  0  0  0  0
   -1.1914   -9.0495  -19.6465 O   0  0  0  0  0
   -0.9542   -8.5967  -22.2757 O   0  0  0  0  0
    0.5776  -10.4546  -21.2623 O   0  0  0  0  0
   -0.8271  -13.7538  -21.1095 O   0  0  0  0  0
    1.2815  -12.6015  -23.6150 O   0  0  0  0  0
    0.3568  -14.9439  -24.1328 O   0  0  0  0  0
    1.0012   -7.7873  -20.7405 O   0  0  0  0  0
   -2.1745   -7.3107  -17.9564 O   0  0  0  0  0
   -6.0603   -6.3553  -23.7208 O   0  0  0  0  0
   -6.4079   -1.9160  -22.8230 O   0  0  0  0  0
   -7.0424   -0.1394  -16.6893 O   0  0  0  0  0
   -5.4155    4.3085  -16.8129 O   0  0  0  0  0
   -6.5862    6.7825  -15.5525 O   0  0  0  0  0
   -5.3791    6.1511  -13.3045 O   0  0  0  0  0
   -6.0575    8.6582  -13.5976 O   0  0  0  0  0
   -7.9331    6.6968  -13.1196 O   0  0  0  0  0
   -8.1840    4.1831  -18.6946 O   0  0  0  0  0
   -7.7458    0.3497  -18.1518 P   0  0  0  0  0
   -5.7598   -5.5894  -22.2426 P   0  0  0  0  0
   -0.1853   -8.9604  -21.0204 P   0  0  0  0  0
   -6.4612    7.0393  -13.8800 P   0  0  0  0  0
  1 21  1  0  0  0
  6 31  1  0  0  0
 11 40  1  0  0  0
 16 49  1  0  0  0
 21 61  1  0  0  0
 22  2  1  0  0  0
 23  3  1  0  0  0
 23  1  1  0  0  0
 24  4  1  0  0  0
 25  5  1  0  0  0
 25 22  1  0  0  0
 26  1  1  0  0  0
 26 27  1  0  0  0
 26 84  1  0  0  0
 27 65  1  0  0  0
 27 58  1  0  0  0
 28 67  1  0  0  0
 29 28  1  0  0  0
 29 68  1  0  0  0
 30 68  1  0  0  0
 30  6  1  0  0  0
 30 36  1  0  0  0
 31 62  1  0  0  0
 32  7  1  0  0  0
 33  8  1  0  0  0
 33  6  1  0  0  0
 34  9  1  0  0  0
 35 10  1  0  0  0
 35 32  1  0  0  0
 36 69  1  0  0  0
 36 57  1  0  0  0
 37 71  1  0  0  0
 38 37  1  0  0  0
 38 72  1  0  0  0
 39 72  1  0  0  0
 39 11  1  0  0  0
 39 45  1  0  0  0
 40 63  1  0  0  0
 41 12  1  0  0  0
 42 13  1  0  0  0
 42 11  1  0  0  0
 43 14  1  0  0  0
 44 15  1  0  0  0
 44 41  1  0  0  0
 45 73  1  0  0  0
 45 56  1  0  0  0
 46 75  1  0  0  0
 47 46  1  0  0  0
 47 76  1  0  0  0
 48 76  1  0  0  0
 48 16  1  0  0  0
 48 54  1  0  0  0
 49 64  1  0  0  0
 50 17  1  0  0  0
 51 18  1  0  0  0
 51 16  1  0  0  0
 52 19  1  0  0  0
 53 20  1  0  0  0
 53 50  1  0  0  0
 54 55  1  0  0  0
 54 78  1  0  0  0
 55 77  1  0  0  0
 55 47  1  0  0  0
 56 80  1  0  0  0
 56 38  1  0  0  0
 57 82  1  0  0  0
 57 29  1  0  0  0
 58 59  1  0  0  0
 58 89  1  0  0  0
 59 84  1  0  0  0
 59 60  1  0  0  0
 60 85  1  0  0  0
 90 65  1  0  0  0
 90 67  1  0  0  0
 90 83  1  0  0  0
 91 69  1  0  0  0
 91 71  1  0  0  0
 91 81  1  0  0  0
 92 73  1  0  0  0
 92 75  1  0  0  0
 92 79  1  0  0  0
 93 85  1  0  0  0
 93 87  1  0  0  0
 93 88  1  0  0  0
 21  2  2  0  0  0
 22 23  2  0  0  0
 24  3  2  0  0  0
 25  4  2  0  0  0
 31  7  2  0  0  0
 32 33  2  0  0  0
 34  8  2  0  0  0
 35  9  2  0  0  0
 40 12  2  0  0  0
 41 42  2  0  0  0
 43 13  2  0  0  0
 44 14  2  0  0  0
 49 17  2  0  0  0
 50 51  2  0  0  0
 52 18  2  0  0  0
 53 19  2  0  0  0
 90 66  2  0  0  0
 91 70  2  0  0  0
 92 74  2  0  0  0
 93 86  2  0  0  0
M  END
> <rmsd>
0.759493709

$$$$
CHEMBL31008 PubChem-44280444


 43 44  0  0  0  0  0  0  0  0999 V2000
    0.6373   -9.2546  -16.0803 C   0  0  0  0  0
    0.3031   -8.9540  -17.5258 C   0  0  0  0  0
    0.2828   -7.4536  -17.7679 C   0  0  0  0  0
   -0.9752   -6.8202  -17.1942 C   0  0  0  0  0
   -2.9923   -6.4562  -18.6390 C   0  0  0  0  0
   -4.1200   -7.0691  -19.2137 C   0  0  0  0  0
   -5.3887   -9.1542  -19.6367 C   0  0  0  0  0
   -5.0371   -6.3032  -19.9471 C   0  0  0  0  0
   -4.8380   -4.9363  -20.1240 C   0  0  0  0  0
   -5.8483   -4.1256  -20.8600 C   0  0  0  0  0
   -7.2031   -2.2132  -20.4440 C   0  0  0  0  0
   -6.1641   -1.1402  -20.1394 C   0  0  0  0  0
   -4.7284   -1.4150  -18.1129 C   0  0  0  0  0
   -3.8379   -0.2518  -17.8296 C   0  0  0  0  0
   -3.4002   -0.0121  -16.5298 C   0  0  0  0  0
   -2.5401    1.0612  -16.2527 C   0  0  0  0  0
   -2.5314    0.5489  -13.8307 C   0  0  0  0  0
   -2.1074    1.9014  -17.2928 C   0  0  0  0  0
   -0.4595    3.6938  -17.8966 C   0  0  0  0  0
    0.7027    2.8585  -18.4176 C   0  0  0  0  0
    1.7350    2.6117  -17.3267 C   0  0  0  0  0
    2.5565    3.8630  -17.0894 C   0  0  0  0  0
   -2.5750    1.6755  -18.6124 C   0  0  0  0  0
   -2.6811    2.3817  -20.9898 C   0  0  0  0  0
   -3.4240    0.5874  -18.8645 C   0  0  0  0  0
   -7.0157   -0.3786  -17.8950 C   0  0  0  0  0
   -7.9430   -4.3754  -19.7003 C   0  0  0  0  0
   -8.7952   -4.5819  -20.9228 C   0  0  0  0  0
   -3.7217   -4.3215  -19.5629 C   0  0  0  0  0
   -2.7875   -5.0638  -18.8210 C   0  0  0  0  0
   -1.4102   -3.0395  -18.4240 C   0  0  0  0  0
   -2.1172   -7.2762  -17.9070 O   0  0  0  0  0
   -4.3129   -8.4442  -19.0358 O   0  0  0  0  0
   -2.0981    1.3108  -14.9490 O   0  0  0  0  0
   -1.2302    2.9482  -16.9612 O   0  0  0  0  0
   -2.2182    2.5416  -19.6535 O   0  0  0  0  0
   -6.8676   -0.2724  -16.6483 O   0  0  0  0  0
   -8.1852    0.0906  -18.4835 O   0  0  0  0  0
   -8.3585   -5.2365  -21.9054 O   0  0  0  0  0
  -10.0860   -4.0745  -20.9544 O   0  0  0  0  0
   -1.6676   -4.4296  -18.2721 O   0  0  0  0  0
   -6.7757   -3.5074  -19.9159 N   0  0  0  0  0
   -5.9878   -0.9751  -18.7011 N   0  0  0  0  0
  1  2  1  0  0  0
  2  3  1  0  0  0
  3  4  1  0  0  0
  4 32  1  0  0  0
  5 32  1  0  0  0
  6 33  1  0  0  0
  6  8  1  0  0  0
  7 33  1  0  0  0
  9 29  1  0  0  0
 10  9  1  0  0  0
 10 42  1  0  0  0
 11 42  1  0  0  0
 11 12  1  0  0  0
 12 43  1  0  0  0
 13 43  1  0  0  0
 13 14  1  0  0  0
 15 16  1  0  0  0
 16 34  1  0  0  0
 17 34  1  0  0  0
 18 35  1  0  0  0
 18 23  1  0  0  0
 19 35  1  0  0  0
 19 20  1  0  0  0
 20 21  1  0  0  0
 21 22  1  0  0  0
 23 36  1  0  0  0
 24 36  1  0  0  0
 25 14  1  0  0  0
 26 38  1  0  0  0
 27 42  1  0  0  0
 27 28  1  0  0  0
 28 40  1  0  0  0
 30 41  1  0  0  0
 30  5  1  0  0  0
 31 41  1  0  0  0
 43 26  1  0  0  0
  5  6  2  0  0  0
  8  9  2  0  0  0
 14 15  2  0  0  0
 16 18  2  0  0  0
 23 25  2  0  0  0
 26 37  2  0  0  0
 28 39  2  0  0  0
 29 30  2  0  0  0
M  END
> <rmsd>
0.818671107

$$$$
CHEMBL2221072 PubChem-71458480


 88 92  0  0  0  0  0  0  0  0999 V2000
   -6.3225   -4.3998  -19.5977 O   0  0  0  0  0
   -8.1569   -5.4827  -21.8216 O   0  0  0  0  0
   -7.1829   -5.7894  -24.2165 O   0  0  0  0  0
   -8.0980   -3.6009  -23.6202 O   0  0  0  0  0
   -5.7975   -4.2587  -22.6334 O   0  0  0  0  0
   -7.7274   -8.1400  -22.2298 O   0  0  0  0  0
   -5.2415   -7.9627  -23.0222 O   0  0  0  0  0
   -6.6875   -9.6320  -24.0820 O   0  0  0  0  0
   -5.8553  -10.1067  -21.6719 O   0  0  0  0  0
   -8.5070   -9.3903  -19.8344 O   0  0  0  0  0
  -10.3206  -11.2027  -20.1792 O   0  0  0  0  0
  -10.9866   -9.1514  -19.0276 O   0  0  0  0  0
  -10.6062   -9.0683  -21.6120 O   0  0  0  0  0
   -6.8713   -6.4586  -18.6399 O   0  0  0  0  0
   -4.6342   -2.7195  -16.9616 O   0  0  0  0  0
   -2.9738   -1.2311  -16.2945 O   0  0  0  0  0
   -0.3510   -0.5266  -16.1107 O   0  0  0  0  0
   -2.5549    1.1638  -19.0152 O   0  0  0  0  0
   -7.6318   -0.0902  -16.0897 O   0  0  0  0  0
   -8.9288    1.2243  -13.8383 O   0  0  0  0  0
  -10.4960    0.4140  -11.9084 O   0  0  0  0  0
   -8.4074    1.5620  -11.2996 O   0  0  0  0  0
  -10.3340    2.9757  -12.2832 O   0  0  0  0  0
   -8.7875   -0.2871  -18.5983 O   0  0  0  0  0
  -10.9753   -2.1876  -19.1914 O   0  0  0  0  0
  -10.5136   -4.7463  -19.4965 O   0  0  0  0  0
  -11.8372   -4.0201  -17.5668 O   0  0  0  0  0
   -9.2857   -3.5678  -17.5184 O   0  0  0  0  0
    1.2358    3.3574  -20.9464 O   0  0  0  0  0
    2.1273    3.8355  -23.6531 O   0  0  0  0  0
    3.9940    5.5962  -24.1393 O   0  0  0  0  0
    3.6161    3.8113  -25.7821 O   0  0  0  0  0
    1.8813    5.7290  -25.6486 O   0  0  0  0  0
    1.8287    0.6523  -17.0258 O   0  0  0  0  0
   -3.0317   -5.1761  -18.6839 O   0  0  0  0  0
   -2.2618   -7.0073  -20.3539 O   0  0  0  0  0
   -4.3349   -7.4159  -19.1561 O   0  0  0  0  0
   -2.1050   -7.6293  -17.8391 O   0  0  0  0  0
   -4.3284   -5.2310  -15.3156 O   0  0  0  0  0
   -4.7744   -7.7112  -16.0414 O   0  0  0  0  0
   -2.7929   -7.2603  -14.6678 O   0  0  0  0  0
   -5.1184   -7.1478  -13.5303 O   0  0  0  0  0
   -1.2916   -3.7541  -16.2683 O   0  0  0  0  0
    0.9716   -3.7005  -14.9842 O   0  0  0  0  0
   -0.9137   -2.5049  -13.9854 O   0  0  0  0  0
   -0.9163   -5.1010  -13.8870 O   0  0  0  0  0
   -7.2190   -5.4851  -19.6111 C   0  0  0  0  0
   -7.1843   -6.0965  -21.0224 C   0  0  0  0  0
   -7.3664   -7.6220  -20.9795 C   0  0  0  0  0
   -8.3789   -7.9988  -19.9063 C   0  0  0  0  0
   -7.9011   -7.4390  -18.5517 C   0  0  0  0  0
   -9.0613   -6.9572  -17.7029 C   0  0  0  0  0
   -6.2225   -3.9094  -18.2928 C   0  0  0  0  0
   -4.7596   -3.6683  -17.9899 C   0  0  0  0  0
   -3.2556   -2.5151  -16.8306 C   0  0  0  0  0
   -2.4011   -0.2651  -17.1271 C   0  0  0  0  0
   -1.0303    0.0164  -17.0247 C   0  0  0  0  0
   -0.4240    0.8693  -17.9729 C   0  0  0  0  0
    0.9615    1.1672  -17.9833 C   0  0  0  0  0
    1.4877    1.9939  -18.9809 C   0  0  0  0  0
    0.6660    2.5364  -19.9702 C   0  0  0  0  0
   -0.7032    2.2489  -19.9626 C   0  0  0  0  0
   -1.2517    1.4224  -18.9819 C   0  0  0  0  0
   -3.1615    0.3690  -18.1365 C   0  0  0  0  0
   -4.6214    0.1846  -18.2543 C   0  0  0  0  0
   -5.2165    0.0913  -19.5191 C   0  0  0  0  0
   -6.5959   -0.0817  -19.6390 C   0  0  0  0  0
   -7.4027   -0.1419  -18.4939 C   0  0  0  0  0
   -6.8167   -0.0336  -17.2247 C   0  0  0  0  0
   -5.4285    0.1264  -17.1114 C   0  0  0  0  0
   -7.1113   -0.0140  -14.7684 C   0  0  0  0  0
   -8.2463    0.0062  -13.7621 C   0  0  0  0  0
   -9.4467   -0.4736  -19.8465 C   0  0  0  0  0
   -9.8679   -1.9246  -19.9990 C   0  0  0  0  0
    0.4605    4.0206  -21.9440 C   0  0  0  0  0
    1.3804    4.7534  -22.9061 C   0  0  0  0  0
   -2.6555   -3.6462  -15.9934 C   0  0  0  0  0
   -3.3582   -4.9840  -16.2965 C   0  0  0  0  0
   -4.0142   -4.9942  -17.6994 C   0  0  0  0  0
   -7.3225   -4.7841  -23.1108 S   0  0  0  0  0
   -6.3556   -8.9461  -22.7880 S   0  0  0  0  0
  -10.1333   -9.7173  -20.1299 S   0  0  0  0  0
   -9.5333    1.5019  -12.2924 S   0  0  0  0  0
  -10.6771   -3.6725  -18.4556 S   0  0  0  0  0
    2.9507    4.7447  -24.8079 S   0  0  0  0  0
   -2.9632   -6.8257  -19.0442 S   0  0  0  0  0
   -4.2201   -6.8725  -14.9227 S   0  0  0  0  0
   -0.5165   -3.7255  -14.7659 S   0  0  0  0  0
 47  1  1  0  0  0
 47 48  1  0  0  0
 47 14  1  0  0  0
 48  2  1  0  0  0
 48 49  1  0  0  0
 49  6  1  0  0  0
 49 50  1  0  0  0
 50 10  1  0  0  0
 50 51  1  0  0  0
 51 14  1  0  0  0
 51 52  1  0  0  0
 53  1  1  0  0  0
 54 53  1  0  0  0
 54 15  1  0  0  0
 55 15  1  0  0  0
 55 16  1  0  0  0
 55 77  1  0  0  0
 56 16  1  0  0  0
 56 57  1  0  0  0
 57 58  1  0  0  0
 59 60  1  0  0  0
 59 34  1  0  0  0
 61 62  1  0  0  0
 61 29  1  0  0  0
 63 18  1  0  0  0
 63 58  1  0  0  0
 64 18  1  0  0  0
 64 65  1  0  0  0
 66 67  1  0  0  0
 68 69  1  0  0  0
 68 24  1  0  0  0
 69 19  1  0  0  0
 70 65  1  0  0  0
 71 19  1  0  0  0
 71 72  1  0  0  0
 72 20  1  0  0  0
 73 24  1  0  0  0
 73 74  1  0  0  0
 74 25  1  0  0  0
 75 29  1  0  0  0
 75 76  1  0  0  0
 76 30  1  0  0  0
 77 78  1  0  0  0
 77 43  1  0  0  0
 78 79  1  0  0  0
 78 39  1  0  0  0
 79 35  1  0  0  0
 79 54  1  0  0  0
 80  2  1  0  0  0
 80  5  1  0  0  0
 81  6  1  0  0  0
 81  9  1  0  0  0
 82 10  1  0  0  0
 82 13  1  0  0  0
 83 20  1  0  0  0
 83 23  1  0  0  0
 84 25  1  0  0  0
 84 28  1  0  0  0
 85 30  1  0  0  0
 85 33  1  0  0  0
 86 35  1  0  0  0
 86 38  1  0  0  0
 87 39  1  0  0  0
 87 42  1  0  0  0
 88 43  1  0  0  0
 88 46  1  0  0  0
 57 17  2  0  0  0
 58 59  2  0  0  0
 60 61  2  0  0  0
 62 63  2  0  0  0
 64 56  2  0  0  0
 65 66  2  0  0  0
 67 68  2  0  0  0
 69 70  2  0  0  0
 80  3  2  0  0  0
 80  4  2  0  0  0
 81  7  2  0  0  0
 81  8  2  0  0  0
 82 11  2  0  0  0
 82 12  2  0  0  0
 83 21  2  0  0  0
 83 22  2  0  0  0
 84 26  2  0  0  0
 84 27  2  0  0  0
 85 31  2  0  0  0
 85 32  2  0  0  0
 86 36  2  0  0  0
 86 37  2  0  0  0
 87 40  2  0  0  0
 87 41  2  0  0  0
 88 44  2  0  0  0
 88 45  2  0  0  0
M  END
> <rmsd>
0.626550496

$$$$
CHEMBL1161410 NSC676013 PubChem-385086 PubChem-54608863 PubChem-6331404


 42 44  0  0  0  0  0  0  0  0999 V2000
   -2.6527   -0.9346  -17.4566 C   0  0  0  0  0
   -1.8346    0.0652  -16.9287 C   0  0  0  0  0
   -1.9954    1.4001  -17.3271 C   0  0  0  0  0
   -2.9836    1.7264  -18.2667 C   0  0  0  0  0
   -3.8047    0.7143  -18.7878 C   0  0  0  0  0
   -3.6538   -0.6198  -18.3836 C   0  0  0  0  0
   -4.4844   -1.7087  -18.9503 C   0  0  0  0  0
   -5.7587   -1.4834  -19.5132 C   0  0  0  0  0
   -6.4622   -2.5639  -20.0605 C   0  0  0  0  0
   -5.9064   -3.8578  -20.0082 C   0  0  0  0  0
   -6.5584   -5.0039  -20.5261 C   0  0  0  0  0
   -5.9310   -6.2552  -20.4231 C   0  0  0  0  0
   -4.6802   -6.3906  -19.8214 C   0  0  0  0  0
   -4.0380   -5.2573  -19.3119 C   0  0  0  0  0
   -4.6374   -4.0009  -19.4008 C   0  0  0  0  0
   -7.5868   -2.3591  -20.5933 O   0  0  0  0  0
   -3.9966   -2.9465  -18.9117 O   0  0  0  0  0
   -4.1019   -7.6609  -19.7453 O   0  0  0  0  0
   -2.6125   -7.5624  -17.5803 O   0  0  0  0  0
   -2.2520   -9.4185  -19.1402 O   0  0  0  0  0
   -1.3967   -7.0633  -19.8253 O   0  0  0  0  0
   -7.8164   -4.8917  -21.1336 O   0  0  0  0  0
   -7.8718   -6.8624  -22.8759 O   0  0  0  0  0
   -8.9535   -7.2246  -20.7019 O   0  0  0  0  0
  -10.1353   -5.6739  -22.4177 O   0  0  0  0  0
   -6.3336   -0.2124  -19.5179 O   0  0  0  0  0
   -8.0218    1.5914  -18.6417 O   0  0  0  0  0
   -6.7646    0.2981  -16.9814 O   0  0  0  0  0
   -8.7048   -0.8815  -18.2449 O   0  0  0  0  0
   -3.1235    3.0588  -18.6716 O   0  0  0  0  0
   -4.0714    2.8460  -21.1171 O   0  0  0  0  0
   -5.6622    3.3118  -19.3068 O   0  0  0  0  0
   -4.0920    5.2284  -20.0825 O   0  0  0  0  0
   -1.1854    2.4173  -16.8091 O   0  0  0  0  0
   -0.5363    1.5548  -14.4103 O   0  0  0  0  0
    1.0737    1.2008  -16.2293 O   0  0  0  0  0
    0.7934    3.6055  -15.2889 O   0  0  0  0  0
   -2.5768   -7.9561  -19.0300 S   0  0  0  0  0
   -8.6788   -6.2186  -21.7838 S   0  0  0  0  0
   -7.4557    0.2394  -18.3142 S   0  0  0  0  0
   -4.2769    3.5797  -19.8218 S   0  0  0  0  0
    0.0525    2.1450  -15.6605 S   0  0  0  0  0
  2  3  1  0  0  0
  3 34  1  0  0  0
  4  5  1  0  0  0
  4 30  1  0  0  0
  6  7  1  0  0  0
  6  1  1  0  0  0
  7 17  1  0  0  0
  8  9  1  0  0  0
  8 26  1  0  0  0
  9 10  1  0  0  0
 11 12  1  0  0  0
 11 22  1  0  0  0
 13 14  1  0  0  0
 13 18  1  0  0  0
 15 17  1  0  0  0
 15 10  1  0  0  0
 38 18  1  0  0  0
 38 21  1  0  0  0
 39 22  1  0  0  0
 39 25  1  0  0  0
 40 26  1  0  0  0
 40 29  1  0  0  0
 41 30  1  0  0  0
 41 33  1  0  0  0
 42 34  1  0  0  0
 42 37  1  0  0  0
  1  2  2  0  0  0
  3  4  2  0  0  0
  5  6  2  0  0  0
  7  8  2  0  0  0
  9 16  2  0  0  0
 10 11  2  0  0  0
 12 13  2  0  0  0
 14 15  2  0  0  0
 38 19  2  0  0  0
 38 20  2  0  0  0
 39 23  2  0  0  0
 39 24  2  0  0  0
 40 27  2  0  0  0
 40 28  2  0  0  0
 41 31  2  0  0  0
 41 32  2  0  0  0
 42 35  2  0  0  0
 42 36  2  0  0  0
M  END
> <rmsd>
0.795251489

$$$$
CHEMBL2057586 PubChem-70692661


 91102  0  0  0  0  0  0  0  0999 V2000
   -1.4736   -4.1570  -25.1040 P   0  0  0  0  0
   -6.8707   -4.9372  -20.7679 P   0  0  0  0  0
   -7.6130    2.2094  -17.2394 P   0  0  0  0  0
  -13.4120    2.6921  -14.7367 P   0  0  0  0  0
   -1.3591   -4.9373  -23.8147 O   0  0  0  0  0
   -1.9103   -2.5572  -24.7674 O   0  0  0  0  0
    0.0274   -4.1673  -25.8825 O   0  0  0  0  0
   -3.9467   -4.9570  -25.5346 O   0  0  0  0  0
   -7.2811   -7.2155  -24.3185 O   0  0  0  0  0
   -5.8957   -5.0086  -22.1568 O   0  0  0  0  0
   -8.3125   -5.1890  -21.1530 O   0  0  0  0  0
   -6.7303   -3.3927  -20.0801 O   0  0  0  0  0
   -8.8957   -0.7032  -18.3844 O   0  0  0  0  0
   -7.2253    0.5981  -16.8686 O   0  0  0  0  0
   -8.3429    2.2937  -18.5609 O   0  0  0  0  0
   -6.2094    3.1474  -17.3103 O   0  0  0  0  0
   -8.0444    3.0002  -14.7150 O   0  0  0  0  0
  -10.6377   -0.3291  -13.7812 O   0  0  0  0  0
  -11.7659    2.8775  -14.3629 O   0  0  0  0  0
  -13.6077    1.4379  -15.5633 O   0  0  0  0  0
  -13.9589    4.0475  -15.6003 O   0  0  0  0  0
  -10.1398    5.7279  -16.8867 O   0  0  0  0  0
  -10.3608    7.4695  -14.9886 O   0  0  0  0  0
  -13.3699    6.5026  -16.5511 O   0  0  0  0  0
  -14.3102    2.5726  -13.3066 O   0  0  0  0  0
   -9.4534    2.5327  -12.3921 O   0  0  0  0  0
   -5.7548   -2.1825  -17.7217 O   0  0  0  0  0
   -6.3728   -6.1069  -19.6464 O   0  0  0  0  0
   -3.9150   -6.9666  -23.7015 O   0  0  0  0  0
   -2.7156   -4.9180  -26.1831 C   0  0  0  0  0
   -4.5107   -6.1845  -25.9016 C   0  0  0  0  0
   -4.9389   -6.9654  -24.6617 C   0  0  0  0  0
   -6.1975   -6.3739  -24.0577 C   0  0  0  0  0
   -5.9299   -6.3421  -22.5823 C   0  0  0  0  0
   -7.4388   -3.4598  -18.8785 C   0  0  0  0  0
   -7.1304   -2.2560  -17.9945 C   0  0  0  0  0
   -7.5491   -0.9692  -18.6550 C   0  0  0  0  0
   -6.6321    0.0439  -18.0120 C   0  0  0  0  0
   -8.7210    2.8301  -15.9327 C   0  0  0  0  0
   -7.9521    1.7306  -14.1186 C   0  0  0  0  0
   -9.1359    1.4262  -13.1994 C   0  0  0  0  0
  -10.3614    1.0174  -14.0024 C   0  0  0  0  0
  -11.4707    1.8602  -13.4488 C   0  0  0  0  0
  -13.1957    4.1009  -16.7729 C   0  0  0  0  0
  -12.5003    5.4532  -16.9071 C   0  0  0  0  0
  -11.2435    5.4914  -16.0564 C   0  0  0  0  0
  -11.4822    6.6393  -15.1158 C   0  0  0  0  0
  -12.6181    7.3920  -15.7658 C   0  0  0  0  0
  -13.6062    9.3499  -14.5324 C   0  0  0  0  0
  -14.8857    8.3932  -13.1259 C   0  0  0  0  0
  -15.7953    8.0355  -12.1410 C   0  0  0  0  0
  -15.4025    5.7494  -12.7073 C   0  0  0  0  0
  -14.2761    7.4369  -13.8579 C   0  0  0  0  0
  -10.8360    2.4242  -12.1859 C   0  0  0  0  0
  -11.2233    4.9356  -12.2990 C   0  0  0  0  0
  -12.5821    5.2166  -10.6943 C   0  0  0  0  0
  -13.4771    5.6645   -9.7350 C   0  0  0  0  0
  -13.6817    3.4132   -8.9766 C   0  0  0  0  0
  -12.2693    3.9031  -10.7636 C   0  0  0  0  0
   -5.4614   -0.8111  -17.5591 C   0  0  0  0  0
   -3.8622   -0.8801  -19.5158 C   0  0  0  0  0
   -2.2379    0.2702  -18.7720 C   0  0  0  0  0
   -1.0520    0.9498  -18.5254 C   0  0  0  0  0
   -1.9279    1.5607  -16.3924 C   0  0  0  0  0
   -3.2090    0.2491  -17.8353 C   0  0  0  0  0
   -4.5682   -7.0198  -22.4611 C   0  0  0  0  0
   -3.1387   -5.2229  -21.3792 C   0  0  0  0  0
   -2.6308   -6.1415  -19.5402 C   0  0  0  0  0
   -2.1966   -6.4865  -18.2691 C   0  0  0  0  0
   -3.3277   -8.5721  -18.5229 C   0  0  0  0  0
   -3.3889   -7.0084  -20.2485 C   0  0  0  0  0
  -13.4655    8.0163  -14.7532 N   0  0  0  0  0
  -14.4839    9.6168  -13.5224 N   0  0  0  0  0
  -16.4618    9.0139  -11.3531 N   0  0  0  0  0
  -16.0394    6.7020  -11.9552 N   0  0  0  0  0
  -14.5091    6.1143  -13.6750 N   0  0  0  0  0
  -11.4166    3.6978  -11.7694 N   0  0  0  0  0
  -11.9381    5.9048  -11.6542 N   0  0  0  0  0
  -13.8255    7.0416   -9.6310 N   0  0  0  0  0
  -14.0183    4.7429   -8.8840 N   0  0  0  0  0
  -12.7987    2.9782   -9.9250 N   0  0  0  0  0
   -4.2453   -0.4634  -18.2838 N   0  0  0  0  0
   -2.6152   -0.4379  -19.8528 N   0  0  0  0  0
    0.0034    0.9693  -19.4775 N   0  0  0  0  0
   -0.9196    1.5843  -17.3248 N   0  0  0  0  0
   -3.0908    0.8852  -16.6435 N   0  0  0  0  0
   -3.7274   -6.4481  -21.4109 N   0  0  0  0  0
   -2.4500   -4.9967  -20.2278 N   0  0  0  0  0
   -1.4245   -5.5850  -17.4812 N   0  0  0  0  0
   -2.5585   -7.7094  -17.7816 N   0  0  0  0  0
   -3.7582   -8.2204  -19.7717 N   0  0  0  0  0
  1  6  1  0  0  0
  1  7  1  0  0  0
  1 30  1  0  0  0
  2 10  1  0  0  0
  2 12  1  0  0  0
  2 28  1  0  0  0
  3 14  1  0  0  0
  3 16  1  0  0  0
  3 39  1  0  0  0
  4 19  1  0  0  0
  4 21  1  0  0  0
  4 25  1  0  0  0
 30  8  1  0  0  0
 31  8  1  0  0  0
 32 31  1  0  0  0
 32 33  1  0  0  0
 32 29  1  0  0  0
 33  9  1  0  0  0
 33 34  1  0  0  0
 34 10  1  0  0  0
 34 66  1  0  0  0
 35 12  1  0  0  0
 36 35  1  0  0  0
 36 37  1  0  0  0
 36 27  1  0  0  0
 37 13  1  0  0  0
 37 38  1  0  0  0
 38 14  1  0  0  0
 38 60  1  0  0  0
 39 17  1  0  0  0
 40 17  1  0  0  0
 41 40  1  0  0  0
 41 42  1  0  0  0
 41 26  1  0  0  0
 42 18  1  0  0  0
 42 43  1  0  0  0
 43 19  1  0  0  0
 43 54  1  0  0  0
 44 21  1  0  0  0
 45 44  1  0  0  0
 45 46  1  0  0  0
 45 24  1  0  0  0
 46 22  1  0  0  0
 46 47  1  0  0  0
 47 23  1  0  0  0
 47 48  1  0  0  0
 48 24  1  0  0  0
 48 72  1  0  0  0
 50 73  1  0  0  0
 51 74  1  0  0  0
 51 75  1  0  0  0
 52 76  1  0  0  0
 53 72  1  0  0  0
 53 50  1  0  0  0
 54 26  1  0  0  0
 54 77  1  0  0  0
 56 78  1  0  0  0
 57 79  1  0  0  0
 57 80  1  0  0  0
 58 81  1  0  0  0
 59 77  1  0  0  0
 59 56  1  0  0  0
 60 27  1  0  0  0
 60 82  1  0  0  0
 62 83  1  0  0  0
 63 84  1  0  0  0
 63 85  1  0  0  0
 64 86  1  0  0  0
 65 82  1  0  0  0
 65 62  1  0  0  0
 66 29  1  0  0  0
 66 87  1  0  0  0
 68 88  1  0  0  0
 69 89  1  0  0  0
 69 90  1  0  0  0
 70 91  1  0  0  0
 71 87  1  0  0  0
 71 68  1  0  0  0
 72 49  1  0  0  0
 77 55  1  0  0  0
 82 61  1  0  0  0
 87 67  1  0  0  0
  1  5  2  0  0  0
  2 11  2  0  0  0
  3 15  2  0  0  0
  4 20  2  0  0  0
 49 73  2  0  0  0
 50 51  2  0  0  0
 52 75  2  0  0  0
 53 76  2  0  0  0
 55 78  2  0  0  0
 56 57  2  0  0  0
 58 80  2  0  0  0
 59 81  2  0  0  0
 61 83  2  0  0  0
 62 63  2  0  0  0
 64 85  2  0  0  0
 65 86  2  0  0  0
 67 88  2  0  0  0
 68 69  2  0  0  0
 70 90  2  0  0  0
 71 91  2  0  0  0
M  END
> <rmsd>
0.738194525

$$$$
CHEMBL4632379 PubChem-156010222


 63 72  0  0  0  0  0  0  0  0999 V2000
    0.6386    0.9431  -17.6000 C   0  0  0  0  0
    0.8784   -0.1563  -16.6155 C   0  0  0  0  0
   -0.2544    0.0622  -18.3080 C   0  0  0  0  0
   -1.6785    0.5717  -18.2381 C   0  0  0  0  0
   -1.9829    1.8430  -18.7467 C   0  0  0  0  0
   -3.2937    2.3300  -18.7061 C   0  0  0  0  0
   -4.3222    1.5430  -18.1812 C   0  0  0  0  0
   -4.0294    0.2597  -17.6946 C   0  0  0  0  0
   -2.7169   -0.2178  -17.7208 C   0  0  0  0  0
   -6.7461    1.2617  -17.9457 C   0  0  0  0  0
   -8.3513    0.3292  -16.4968 C   0  0  0  0  0
   -8.4596   -0.1013  -18.8187 C   0  0  0  0  0
  -10.3947   -1.3983  -19.7599 C   0  0  0  0  0
  -10.5832   -2.4733  -20.8359 C   0  0  0  0  0
   -8.9771   -1.6781  -22.1943 C   0  0  0  0  0
   -8.6006   -0.5003  -21.2973 C   0  0  0  0  0
   -8.2767    0.8575  -14.0411 C   0  0  0  0  0
   -8.5752    0.0998  -12.7448 C   0  0  0  0  0
  -10.2660   -1.1078  -13.5974 C   0  0  0  0  0
  -10.1813   -0.5011  -14.9975 C   0  0  0  0  0
   -0.4016   -2.4126  -17.3053 C   0  0  0  0  0
   -1.2082   -2.9785  -18.2999 C   0  0  0  0  0
   -1.5684   -4.3251  -18.2306 C   0  0  0  0  0
   -1.1256   -5.1246  -17.1648 C   0  0  0  0  0
   -0.3064   -4.5591  -16.1787 C   0  0  0  0  0
    0.0537   -3.2086  -16.2461 C   0  0  0  0  0
   -2.4037   -7.2138  -17.9051 C   0  0  0  0  0
   -4.1957   -7.1982  -19.4401 C   0  0  0  0  0
   -3.2950   -9.2519  -18.6914 C   0  0  0  0  0
   -2.3748  -11.4099  -17.8105 C   0  0  0  0  0
   -2.7313  -12.8949  -17.7229 C   0  0  0  0  0
   -4.2491  -12.8817  -19.3523 C   0  0  0  0  0
   -4.1202  -11.3969  -19.6920 C   0  0  0  0  0
   -6.1010   -7.1890  -21.0741 C   0  0  0  0  0
   -6.5740   -6.2863  -22.2179 C   0  0  0  0  0
   -5.8753   -4.3715  -21.2803 C   0  0  0  0  0
   -5.3156   -5.0271  -20.0169 C   0  0  0  0  0
    2.0339    2.2831  -19.1567 C   0  0  0  0  0
    1.0674    3.2961  -19.2755 C   0  0  0  0  0
    1.3100    4.4143  -20.0833 C   0  0  0  0  0
    2.5201    4.5293  -20.7701 C   0  0  0  0  0
    3.4856    3.5244  -20.6541 C   0  0  0  0  0
    3.2418    2.4048  -19.8500 C   0  0  0  0  0
    1.5578   -0.2788  -15.5627 O   0  0  0  0  0
   -5.6227    2.0617  -18.1517 O   0  0  0  0  0
  -10.3599   -1.9193  -22.1099 O   0  0  0  0  0
   -9.9573   -0.1322  -12.6355 O   0  0  0  0  0
   -2.9950  -13.4034  -19.0049 O   0  0  0  0  0
   -7.0276   -5.0606  -21.6998 O   0  0  0  0  0
    1.8193    1.1448  -18.3717 O   0  0  0  0  0
   -0.0167   -1.0407  -17.3894 N   0  0  0  0  0
   -7.2430    1.0923  -16.6951 N   0  0  0  0  0
   -8.9560   -0.2627  -17.5630 N   0  0  0  0  0
   -7.3532    0.6661  -19.0035 N   0  0  0  0  0
   -9.0994   -0.7350  -19.9391 N   0  0  0  0  0
   -8.8823    0.1530  -15.1748 N   0  0  0  0  0
   -1.4536   -6.5199  -17.0858 N   0  0  0  0  0
   -3.3041   -6.5326  -18.6613 N   0  0  0  0  0
   -4.1820   -8.5593  -19.4568 N   0  0  0  0  0
   -2.4109   -8.5713  -17.9133 N   0  0  0  0  0
   -3.2937  -10.6894  -18.7032 N   0  0  0  0  0
   -5.1422   -6.4682  -20.2376 N   0  0  0  0  0
    2.8280    5.9247  -21.7854 Cl  0  0  0  0  0
  1  2  1  0  0  0
  1 50  1  0  0  0
  2 51  1  0  0  0
  3 51  1  0  0  0
  3  4  1  0  0  0
  3  1  1  0  0  0
  5  6  1  0  0  0
  7  8  1  0  0  0
  7 45  1  0  0  0
  9  4  1  0  0  0
 10 45  1  0  0  0
 10 54  1  0  0  0
 11 52  1  0  0  0
 11 56  1  0  0  0
 12 53  1  0  0  0
 12 55  1  0  0  0
 13 55  1  0  0  0
 13 14  1  0  0  0
 14 46  1  0  0  0
 15 46  1  0  0  0
 15 16  1  0  0  0
 16 55  1  0  0  0
 17 56  1  0  0  0
 17 18  1  0  0  0
 18 47  1  0  0  0
 19 47  1  0  0  0
 19 20  1  0  0  0
 20 56  1  0  0  0
 22 23  1  0  0  0
 24 25  1  0  0  0
 24 57  1  0  0  0
 26 21  1  0  0  0
 27 60  1  0  0  0
 28 58  1  0  0  0
 28 62  1  0  0  0
 29 59  1  0  0  0
 29 61  1  0  0  0
 30 61  1  0  0  0
 30 31  1  0  0  0
 31 48  1  0  0  0
 32 48  1  0  0  0
 32 33  1  0  0  0
 33 61  1  0  0  0
 34 62  1  0  0  0
 34 35  1  0  0  0
 35 49  1  0  0  0
 36 49  1  0  0  0
 36 37  1  0  0  0
 37 62  1  0  0  0
 38 50  1  0  0  0
 39 40  1  0  0  0
 41 42  1  0  0  0
 41 63  1  0  0  0
 43 38  1  0  0  0
 51 21  1  0  0  0
 57 27  1  0  0  0
  2 44  2  0  0  0
  4  5  2  0  0  0
  6  7  2  0  0  0
  8  9  2  0  0  0
 10 52  2  0  0  0
 11 53  2  0  0  0
 12 54  2  0  0  0
 21 22  2  0  0  0
 23 24  2  0  0  0
 25 26  2  0  0  0
 27 58  2  0  0  0
 28 59  2  0  0  0
 29 60  2  0  0  0
 38 39  2  0  0  0
 40 41  2  0  0  0
 42 43  2  0  0  0
M  END
> <rmsd>
0.772121012

$$$$
CHEMBL1208640 58569264 MCULE-8669039857 MolPort-047-152-899 PubChem-10124881 PubChem-129009866 PubChem-3086672 PubChem-60683 PubChem-66545954 PubChem-87093664 PubChem-89677267 PubChem-9962239


 42 43  0  0  0  0  0  0  0  0999 V2000
   -0.3629    2.3928  -18.0968 C   0  0  0  0  0
   -1.6949    1.7340  -18.2049 C   0  0  0  0  0
   -3.7209    1.0860  -17.1493 C   0  0  0  0  0
   -4.1921    0.5204  -18.3344 C   0  0  0  0  0
   -5.5496   -0.0995  -18.3426 C   0  0  0  0  0
   -3.3911    0.5794  -19.4906 C   0  0  0  0  0
   -3.8584   -0.0215  -20.7818 C   0  0  0  0  0
   -4.7634   -2.1216  -21.2483 C   0  0  0  0  0
   -5.3546   -2.9334  -20.1052 C   0  0  0  0  0
   -4.5868   -4.2154  -18.2757 C   0  0  0  0  0
   -3.3479   -3.7971  -17.5631 C   0  0  0  0  0
   -4.7066   -5.2259  -20.4673 C   0  0  0  0  0
   -6.0470   -5.8683  -20.1754 C   0  0  0  0  0
   -6.1558   -6.8993  -19.2218 C   0  0  0  0  0
   -4.9657   -7.4029  -18.4666 C   0  0  0  0  0
   -7.4047   -7.4773  -18.9827 C   0  0  0  0  0
   -8.4163   -6.1025  -20.6322 C   0  0  0  0  0
   -9.6456   -5.7129  -21.3777 C   0  0  0  0  0
   -7.1849   -5.4947  -20.9127 C   0  0  0  0  0
   -2.5643   -1.6457  -21.8568 C   0  0  0  0  0
   -1.2565   -2.0879  -21.2833 C   0  0  0  0  0
   -2.1286    1.1888  -19.4215 C   0  0  0  0  0
   -2.4963    1.6723  -17.1086 N   0  0  0  0  0
   -3.5543   -1.4435  -20.8090 N   0  0  0  0  0
   -4.4343   -3.9923  -19.7090 N   0  0  0  0  0
   -8.4966   -7.0669  -19.6794 N   0  0  0  0  0
   -6.4752    0.7933  -18.8878 O   0  0  0  0  0
   -8.9537    1.5223  -18.4844 O   0  0  0  0  0
   -7.5249    1.0861  -16.3401 O   0  0  0  0  0
   -8.4007   -0.9791  -17.9616 O   0  0  0  0  0
   -2.6629   -4.6498  -16.9413 O   0  0  0  0  0
   -2.9556   -2.4661  -17.5716 O   0  0  0  0  0
   -4.6971   -8.7280  -18.8220 O   0  0  0  0  0
   -2.1729   -8.2768  -18.2158 O   0  0  0  0  0
   -2.6569  -10.3329  -19.7505 O   0  0  0  0  0
   -2.8799   -7.7546  -20.6852 O   0  0  0  0  0
   -7.0927   -4.5413  -21.9241 O   0  0  0  0  0
   -0.2875   -2.3089  -22.0543 O   0  0  0  0  0
   -1.0944   -2.2538  -19.9133 O   0  0  0  0  0
   -1.3148    1.2540  -20.5497 O   0  0  0  0  0
   -7.8668    0.6273  -17.9329 P   0  0  0  0  0
   -3.0783   -8.7506  -19.3318 P   0  0  0  0  0
  1  2  1  0  0  0
  3 23  1  0  0  0
  4  6  1  0  0  0
  5  4  1  0  0  0
  5 27  1  0  0  0
  7  6  1  0  0  0
  7 24  1  0  0  0
  8 24  1  0  0  0
  8  9  1  0  0  0
  9 25  1  0  0  0
 10 25  1  0  0  0
 10 11  1  0  0  0
 11 32  1  0  0  0
 12 25  1  0  0  0
 12 13  1  0  0  0
 14 16  1  0  0  0
 15 14  1  0  0  0
 15 33  1  0  0  0
 17 26  1  0  0  0
 18 17  1  0  0  0
 19 37  1  0  0  0
 19 13  1  0  0  0
 20 24  1  0  0  0
 20 21  1  0  0  0
 21 39  1  0  0  0
 22 40  1  0  0  0
 22  2  1  0  0  0
 41 27  1  0  0  0
 41 29  1  0  0  0
 41 30  1  0  0  0
 42 33  1  0  0  0
 42 35  1  0  0  0
 42 36  1  0  0  0
  2 23  2  0  0  0
  3  4  2  0  0  0
  6 22  2  0  0  0
 11 31  2  0  0  0
 13 14  2  0  0  0
 16 26  2  0  0  0
 17 19  2  0  0  0
 21 38  2  0  0  0
 41 28  2  0  0  0
 42 34  2  0  0  0
M  END
> <rmsd>
0.85843271

$$$$
CHEMBL4596971 PubChem-155537401


114122  0  0  0  0  0  0  0  0999 V2000
   -1.5743    5.0935  -10.7229 O   0  0  0  0  0
   -0.7460    4.5574  -12.9669 O   0  0  0  0  0
   -0.8710    7.0895  -12.2705 O   0  0  0  0  0
   -0.6067    9.5638  -18.1724 O   0  0  0  0  0
    0.8516   11.9006  -18.1360 O   0  0  0  0  0
    1.9573   12.5092  -20.4304 O   0  0  0  0  0
    0.9540   10.2814  -20.2328 O   0  0  0  0  0
    3.2037   10.7303  -19.0098 O   0  0  0  0  0
    0.8502   10.8127  -14.6561 O   0  0  0  0  0
    4.4173   16.0799  -14.8378 O   0  0  0  0  0
    6.5439   15.0688  -13.6779 O   0  0  0  0  0
    6.7447   17.2845  -14.7182 O   0  0  0  0  0
    6.6334   15.2055  -16.2751 O   0  0  0  0  0
    2.9072   15.0329  -12.7610 O   0  0  0  0  0
    2.3629   15.3070  -10.2137 O   0  0  0  0  0
    0.4827   14.9994  -11.7535 O   0  0  0  0  0
    1.9650   12.9321  -11.1992 O   0  0  0  0  0
   -1.4888    7.3529  -17.0925 O   0  0  0  0  0
   -2.7781    4.2736  -18.5776 O   0  0  0  0  0
   -4.6600    2.4795  -18.7934 O   0  0  0  0  0
   -5.6482   -0.0664  -18.6103 O   0  0  0  0  0
   -6.7308   -0.0113  -16.2197 O   0  0  0  0  0
   -7.0934    1.9380  -17.6683 O   0  0  0  0  0
   -8.3696   -0.2514  -18.2147 O   0  0  0  0  0
   -2.1310   -0.4466  -17.7445 O   0  0  0  0  0
    1.5873    2.4880  -17.3467 O   0  0  0  0  0
    1.7055    4.9347  -16.3909 O   0  0  0  0  0
    3.8048    3.8708  -17.0964 O   0  0  0  0  0
    2.1634    4.6800  -18.9403 O   0  0  0  0  0
   -4.9076   -6.2118  -17.2633 O   0  0  0  0  0
   -4.1061   -7.4265  -19.4500 O   0  0  0  0  0
   -2.6356   -7.5331  -17.4791 O   0  0  0  0  0
   -4.8067   -8.9617  -17.4738 O   0  0  0  0  0
   -6.7404   -4.2144  -16.7583 O   0  0  0  0  0
   -9.3109   -5.0231  -17.2762 O   0  0  0  0  0
   -9.1668   -5.9939  -19.6857 O   0  0  0  0  0
   -9.3153   -8.0349  -21.5349 O   0  0  0  0  0
   -6.7003   -7.7994  -21.4848 O   0  0  0  0  0
   -7.8267   -7.7076  -23.6603 O   0  0  0  0  0
   -8.0016   -5.6331  -22.1146 O   0  0  0  0  0
   -9.9648   -9.6820  -18.3433 O   0  0  0  0  0
  -10.1544   -8.2527  -13.7847 O   0  0  0  0  0
  -11.9840  -10.1389  -13.8280 O   0  0  0  0  0
  -10.8454   -9.6922  -11.7036 O   0  0  0  0  0
   -9.5250  -10.9474  -13.5597 O   0  0  0  0  0
  -10.8094  -14.1447  -22.8149 O   0  0  0  0  0
  -12.3857  -13.2348  -24.7238 O   0  0  0  0  0
  -13.4274  -13.9743  -22.6267 O   0  0  0  0  0
  -12.5137  -15.7881  -24.2510 O   0  0  0  0  0
   -9.9791  -11.6814  -24.0916 O   0  0  0  0  0
   -7.5526  -12.6600  -24.3392 O   0  0  0  0  0
   -8.7567  -12.0357  -26.3750 O   0  0  0  0  0
   -9.4627  -14.2158  -25.1677 O   0  0  0  0  0
   -3.1437    5.5704  -12.7400 O   0  0  0  0  0
   -1.5683    5.5290  -12.1581 S   0  0  0  0  0
    1.7205   11.3489  -19.5001 S   0  0  0  0  0
    6.1210   15.9253  -14.8435 S   0  0  0  0  0
    1.8967   14.5939  -11.4523 S   0  0  0  0  0
   -6.9539    0.4440  -17.6354 S   0  0  0  0  0
    2.3414    4.0207  -17.4041 S   0  0  0  0  0
   -4.0623   -7.5331  -17.9455 S   0  0  0  0  0
   -7.9236   -7.3112  -22.2122 S   0  0  0  0  0
  -10.6700   -9.7716  -13.1963 S   0  0  0  0  0
  -12.3202  -14.2427  -23.6126 S   0  0  0  0  0
   -8.8972  -12.6400  -25.0065 S   0  0  0  0  0
   -0.7086    7.7650  -13.4828 C   0  0  0  0  0
   -1.1939    7.2415  -14.6878 C   0  0  0  0  0
   -1.0128    7.9225  -15.9028 C   0  0  0  0  0
   -0.3234    9.1601  -15.9061 C   0  0  0  0  0
   -0.1103    9.9233  -17.0718 C   0  0  0  0  0
    0.6386   11.1117  -16.9994 C   0  0  0  0  0
    1.1153   11.5381  -15.7388 C   0  0  0  0  0
    0.1745    9.6735  -14.6864 C   0  0  0  0  0
   -0.0278    8.9804  -13.4913 C   0  0  0  0  0
    1.9298   12.7618  -15.5509 C   0  0  0  0  0
    1.9990   13.3432  -14.2754 C   0  0  0  0  0
    2.8227   14.4526  -14.0302 C   0  0  0  0  0
    3.5967   14.9798  -15.0724 C   0  0  0  0  0
    3.5401   14.4031  -16.3492 C   0  0  0  0  0
    2.7116   13.3021  -16.5873 C   0  0  0  0  0
   -2.1287    6.0811  -17.1225 C   0  0  0  0  0
   -2.3267    5.6242  -18.5556 C   0  0  0  0  0
   -1.9700    3.1776  -18.2295 C   0  0  0  0  0
   -2.5098    1.8701  -18.1622 C   0  0  0  0  0
   -3.8603    1.5759  -18.4272 C   0  0  0  0  0
   -4.3200    0.2529  -18.3168 C   0  0  0  0  0
   -3.4038   -0.7602  -17.9651 C   0  0  0  0  0
   -1.6603    0.7924  -17.8141 C   0  0  0  0  0
   -0.3051    1.0139  -17.5440 C   0  0  0  0  0
    0.2265    2.2991  -17.6139 C   0  0  0  0  0
   -0.6067    3.3697  -17.9556 C   0  0  0  0  0
   -3.8093   -2.1776  -17.8134 C   0  0  0  0  0
   -5.0934   -2.5225  -17.3731 C   0  0  0  0  0
   -5.4563   -3.8633  -17.1848 C   0  0  0  0  0
   -4.5239   -4.8772  -17.4441 C   0  0  0  0  0
   -3.2334   -4.5356  -17.8781 C   0  0  0  0  0
   -2.8776   -3.1961  -18.0525 C   0  0  0  0  0
   -7.7955   -3.2674  -16.6466 C   0  0  0  0  0
   -9.0960   -3.9814  -16.3323 C   0  0  0  0  0
   -9.5189   -6.3534  -16.9017 C   0  0  0  0  0
   -9.5849   -7.3812  -17.8750 C   0  0  0  0  0
   -9.3959   -7.1547  -19.2520 C   0  0  0  0  0
   -9.4958   -8.2281  -20.1581 C   0  0  0  0  0
   -9.8158   -9.5138  -19.6560 C   0  0  0  0  0
   -9.8581   -8.7012  -17.4591 C   0  0  0  0  0
  -10.0439   -8.9948  -16.1081 C   0  0  0  0  0
   -9.9635   -7.9878  -15.1430 C   0  0  0  0  0
   -9.6984   -6.6783  -15.5457 C   0  0  0  0  0
  -10.0005  -10.7109  -20.5213 C   0  0  0  0  0
   -9.9086  -10.6586  -21.9219 C   0  0  0  0  0
  -10.1143  -11.7994  -22.7079 C   0  0  0  0  0
  -10.4671  -13.0110  -22.0828 C   0  0  0  0  0
  -10.5281  -13.0784  -20.6884 C   0  0  0  0  0
  -10.2943  -11.9428  -19.9174 C   0  0  0  0  0
 55  3  1  0  0  0
 55 54  1  0  0  0
 56  5  1  0  0  0
 56  8  1  0  0  0
 57 10  1  0  0  0
 57 13  1  0  0  0
 58 14  1  0  0  0
 58 17  1  0  0  0
 59 21  1  0  0  0
 59 24  1  0  0  0
 60 26  1  0  0  0
 60 29  1  0  0  0
 61 30  1  0  0  0
 61 33  1  0  0  0
 62 37  1  0  0  0
 62 40  1  0  0  0
 63 42  1  0  0  0
 63 45  1  0  0  0
 64 46  1  0  0  0
 64 49  1  0  0  0
 65 50  1  0  0  0
 65 53  1  0  0  0
 66  3  1  0  0  0
 67 68  1  0  0  0
 68 18  1  0  0  0
 69 70  1  0  0  0
 70 71  1  0  0  0
 71  5  1  0  0  0
 72  9  1  0  0  0
 72 75  1  0  0  0
 73  9  1  0  0  0
 73 69  1  0  0  0
 74 66  1  0  0  0
 76 77  1  0  0  0
 77 14  1  0  0  0
 78 79  1  0  0  0
 78 10  1  0  0  0
 80 75  1  0  0  0
 81 18  1  0  0  0
 81 82  1  0  0  0
 82 19  1  0  0  0
 83 19  1  0  0  0
 84 85  1  0  0  0
 85 86  1  0  0  0
 86 21  1  0  0  0
 87 25  1  0  0  0
 87 92  1  0  0  0
 88 25  1  0  0  0
 88 84  1  0  0  0
 89 90  1  0  0  0
 90 26  1  0  0  0
 91 83  1  0  0  0
 93 94  1  0  0  0
 94 34  1  0  0  0
 95 96  1  0  0  0
 95 30  1  0  0  0
 97 92  1  0  0  0
 98 34  1  0  0  0
 98 99  1  0  0  0
 99 35  1  0  0  0
100 35  1  0  0  0
101102  1  0  0  0
102103  1  0  0  0
103 37  1  0  0  0
104 41  1  0  0  0
104109  1  0  0  0
105 41  1  0  0  0
105101  1  0  0  0
106107  1  0  0  0
107 42  1  0  0  0
108100  1  0  0  0
110111  1  0  0  0
111 50  1  0  0  0
112113  1  0  0  0
112 46  1  0  0  0
114109  1  0  0  0
 55  1  2  0  0  0
 55  2  2  0  0  0
 56  6  2  0  0  0
 56  7  2  0  0  0
 57 11  2  0  0  0
 57 12  2  0  0  0
 58 15  2  0  0  0
 58 16  2  0  0  0
 59 22  2  0  0  0
 59 23  2  0  0  0
 60 27  2  0  0  0
 60 28  2  0  0  0
 61 31  2  0  0  0
 61 32  2  0  0  0
 62 38  2  0  0  0
 62 39  2  0  0  0
 63 43  2  0  0  0
 63 44  2  0  0  0
 64 47  2  0  0  0
 64 48  2  0  0  0
 65 51  2  0  0  0
 65 52  2  0  0  0
 66 67  2  0  0  0
 68 69  2  0  0  0
 70  4  2  0  0  0
 71 72  2  0  0  0
 73 74  2  0  0  0
 75 76  2  0  0  0
 77 78  2  0  0  0
 79 80  2  0  0  0
 83 84  2  0  0  0
 85 20  2  0  0  0
 86 87  2  0  0  0
 88 89  2  0  0  0
 90 91  2  0  0  0
 92 93  2  0  0  0
 94 95  2  0  0  0
 96 97  2  0  0  0
100101  2  0  0  0
102 36  2  0  0  0
103104  2  0  0  0
105106  2  0  0  0
107108  2  0  0  0
109110  2  0  0  0
111112  2  0  0  0
113114  2  0  0  0
M  END
> <rmsd>
0.726379573

$$$$
CHEMBL3955830


 76 79  0  0  0  0  0  0  0  0999 V2000
   -9.8943  -13.4121  -20.1723 C   0  0  0  0  0
  -10.1555  -10.8852  -20.2232 C   0  0  0  0  0
   -9.2514   -9.7076  -20.0650 C   0  0  0  0  0
   -8.9482   -7.2148  -20.4044 C   0  0  0  0  0
   -8.4670   -6.5721  -21.6678 C   0  0  0  0  0
   -6.2996   -6.0026  -20.6732 C   0  0  0  0  0
   -5.4400   -4.7423  -20.7922 C   0  0  0  0  0
   -4.7714   -4.5826  -22.1571 C   0  0  0  0  0
   -3.4928   -5.3432  -22.2357 C   0  0  0  0  0
   -5.4671   -7.2608  -20.6352 C   0  0  0  0  0
   -4.4322   -6.6452  -18.5052 C   0  0  0  0  0
   -5.5454   -6.8299  -17.4637 C   0  0  0  0  0
   -5.5025   -8.1555  -16.7629 C   0  0  0  0  0
   -5.7239   -9.3447  -17.4712 C   0  0  0  0  0
   -5.6946  -10.5760  -16.8096 C   0  0  0  0  0
   -5.4470  -10.6215  -15.4338 C   0  0  0  0  0
   -5.2257   -9.4357  -14.7226 C   0  0  0  0  0
   -5.2559   -8.2029  -15.3848 C   0  0  0  0  0
   -3.0628   -6.8726  -17.9241 C   0  0  0  0  0
   -2.6685   -4.4759  -17.6454 C   0  0  0  0  0
   -1.4075   -3.6377  -17.8037 C   0  0  0  0  0
   -0.8801   -3.7803  -19.2239 C   0  0  0  0  0
   -0.3361   -2.4499  -19.6908 C   0  0  0  0  0
   -1.2772   -1.3385  -21.7594 C   0  0  0  0  0
   -3.4408   -4.0353  -16.4248 C   0  0  0  0  0
   -3.7876   -1.7922  -17.3342 C   0  0  0  0  0
   -4.7538   -1.9827  -18.4726 C   0  0  0  0  0
   -6.7124   -1.7713  -17.0340 C   0  0  0  0  0
   -7.5307   -2.9918  -16.6174 C   0  0  0  0  0
   -8.5455   -3.4062  -17.6757 C   0  0  0  0  0
   -9.5628   -4.3655  -17.0832 C   0  0  0  0  0
   -9.3049   -6.7707  -17.3452 C   0  0  0  0  0
  -10.4027   -6.8315  -18.3652 C   0  0  0  0  0
   -9.9414   -6.2859  -19.7142 C   0  0  0  0  0
   -7.5274   -0.5168  -17.0651 C   0  0  0  0  0
   -3.9056   -0.4104  -16.7067 C   0  0  0  0  0
   -3.1219    0.5869  -17.4965 C   0  0  0  0  0
   -1.7395    0.6118  -17.6589 C   0  0  0  0  0
   -2.5290    2.2812  -18.7579 C   0  0  0  0  0
   -3.6131    1.6609  -18.1940 C   0  0  0  0  0
   -4.9160    2.1339  -18.3629 C   0  0  0  0  0
   -5.0892    3.2779  -19.1600 C   0  0  0  0  0
   -3.9743    3.9210  -19.7435 C   0  0  0  0  0
   -2.6719    3.4274  -19.5378 C   0  0  0  0  0
  -11.4523  -10.6186  -19.4782 C   0  0  0  0  0
  -12.6290  -11.1690  -20.2622 C   0  0  0  0  0
  -13.9299  -10.6453  -19.6730 C   0  0  0  0  0
  -14.2920   -8.6880  -21.2581 C   0  0  0  0  0
   -9.2429  -14.6080  -19.5816 C   0  0  0  0  0
  -10.7698  -13.5601  -21.0645 O   0  0  0  0  0
   -8.2183   -9.7794  -19.3454 O   0  0  0  0  0
   -2.5516   -5.0880  -21.4381 O   0  0  0  0  0
   -8.6649   -7.9474  -16.9866 O   0  0  0  0  0
   -7.2427    0.4328  -16.2886 O   0  0  0  0  0
   -8.5797   -0.3806  -17.9652 O   0  0  0  0  0
   -4.2325   -2.1593  -19.7463 O   0  0  0  0  0
   -3.6323   -4.9262  -15.3746 O   0  0  0  0  0
   -2.5965   -8.1730  -17.7680 O   0  0  0  0  0
   -5.5699   -8.1784  -21.6739 O   0  0  0  0  0
   -9.3115   -6.5205  -22.7722 O   0  0  0  0  0
   -9.5206  -12.1038  -19.7271 N   0  0  0  0  0
   -9.5941   -8.4825  -20.7200 N   0  0  0  0  0
   -7.2857   -6.0387  -21.7538 N   0  0  0  0  0
   -3.3192   -6.3230  -23.2559 N   0  0  0  0  0
   -4.6404   -7.5107  -19.6633 N   0  0  0  0  0
   -2.3000   -5.8862  -17.5581 N   0  0  0  0  0
   -0.4912   -2.3607  -21.1357 N   0  0  0  0  0
   -1.8185   -0.3992  -21.0521 N   0  0  0  0  0
   -1.4856   -1.3695  -23.1686 N   0  0  0  0  0
   -3.9343   -2.8352  -16.3207 N   0  0  0  0  0
   -6.0448   -1.9819  -18.3137 N   0  0  0  0  0
   -8.9404   -5.6530  -16.7892 N   0  0  0  0  0
   -1.3776    1.6592  -18.4427 N   0  0  0  0  0
  -14.0774   -9.2178  -19.9457 N   0  0  0  0  0
  -14.4527   -9.4748  -22.2712 N   0  0  0  0  0
  -14.3498   -7.2788  -21.4466 N   0  0  0  0  0
  1 61  1  0  0  0
  2 61  1  0  0  0
  2  3  1  0  0  0
  2 45  1  0  0  0
  3 62  1  0  0  0
  4 62  1  0  0  0
  4  5  1  0  0  0
  5 60  1  0  0  0
  6 63  1  0  0  0
  6  7  1  0  0  0
  6 10  1  0  0  0
  7  8  1  0  0  0
  8  9  1  0  0  0
  9 64  1  0  0  0
 10 59  1  0  0  0
 11 65  1  0  0  0
 11 12  1  0  0  0
 11 19  1  0  0  0
 12 13  1  0  0  0
 14 15  1  0  0  0
 16 17  1  0  0  0
 18 13  1  0  0  0
 19 58  1  0  0  0
 20 66  1  0  0  0
 20 21  1  0  0  0
 20 25  1  0  0  0
 21 22  1  0  0  0
 22 23  1  0  0  0
 23 67  1  0  0  0
 24 69  1  0  0  0
 25 57  1  0  0  0
 26 70  1  0  0  0
 26 27  1  0  0  0
 26 36  1  0  0  0
 27 56  1  0  0  0
 28 71  1  0  0  0
 28 29  1  0  0  0
 28 35  1  0  0  0
 29 30  1  0  0  0
 30 31  1  0  0  0
 31 72  1  0  0  0
 32 53  1  0  0  0
 33 32  1  0  0  0
 33 34  1  0  0  0
 34  4  1  0  0  0
 35 55  1  0  0  0
 36 37  1  0  0  0
 38 73  1  0  0  0
 40 41  1  0  0  0
 40 37  1  0  0  0
 42 43  1  0  0  0
 44 39  1  0  0  0
 45 46  1  0  0  0
 46 47  1  0  0  0
 47 74  1  0  0  0
 48 76  1  0  0  0
 49  1  1  0  0  0
 67 24  1  0  0  0
 73 39  1  0  0  0
 74 48  1  0  0  0
  1 50  2  0  0  0
  3 51  2  0  0  0
  5 63  2  0  0  0
  9 52  2  0  0  0
 10 65  2  0  0  0
 13 14  2  0  0  0
 15 16  2  0  0  0
 17 18  2  0  0  0
 19 66  2  0  0  0
 24 68  2  0  0  0
 25 70  2  0  0  0
 27 71  2  0  0  0
 32 72  2  0  0  0
 35 54  2  0  0  0
 37 38  2  0  0  0
 39 40  2  0  0  0
 41 42  2  0  0  0
 43 44  2  0  0  0
 48 75  2  0  0  0
M  END
> <rmsd>
0.58724767

$$$$
CHEMBL2057587 PubChem-70682095


 91102  0  0  0  0  0  0  0  0999 V2000
   -7.6837    0.3915  -17.4695 P   0  0  0  0  0
   -1.1071   -3.0005  -21.4325 P   0  0  0  0  0
   -4.7759   -9.5814  -20.6724 P   0  0  0  0  0
   -2.1899  -17.4089  -18.0879 P   0  0  0  0  0
   -7.4599    0.1316  -15.9946 O   0  0  0  0  0
   -9.3456    0.3710  -17.8043 O   0  0  0  0  0
   -7.0399    1.9042  -17.8727 O   0  0  0  0  0
   -6.9933   -0.6493  -19.8033 O   0  0  0  0  0
   -5.0057   -2.7431  -20.3414 O   0  0  0  0  0
   -2.4965   -2.5379  -22.2973 O   0  0  0  0  0
   -0.2133   -1.7995  -21.2180 O   0  0  0  0  0
   -1.5622   -3.6183  -19.9115 O   0  0  0  0  0
   -2.4565   -7.6666  -17.8032 O   0  0  0  0  0
   -4.3070   -8.6254  -19.3431 O   0  0  0  0  0
   -4.8410   -8.7862  -21.9595 O   0  0  0  0  0
   -6.3114  -10.2161  -20.3676 O   0  0  0  0  0
   -3.5179  -11.7422  -19.7297 O   0  0  0  0  0
   -1.7499  -14.4928  -21.0495 O   0  0  0  0  0
   -3.3113  -16.1988  -18.5091 O   0  0  0  0  0
   -2.8888  -18.4467  -17.2302 O   0  0  0  0  0
   -1.4821  -18.1350  -19.4646 O   0  0  0  0  0
    0.5725  -20.3916  -19.9239 O   0  0  0  0  0
    0.3145  -22.9556  -19.7532 O   0  0  0  0  0
   -2.7557  -21.5048  -19.6989 O   0  0  0  0  0
   -0.9564  -16.7002  -17.1717 O   0  0  0  0  0
   -5.0640  -14.8491  -20.8150 O   0  0  0  0  0
   -3.7770   -5.1639  -19.2328 O   0  0  0  0  0
   -0.2531   -4.1482  -22.3403 O   0  0  0  0  0
   -4.4645    0.2434  -22.1659 O   0  0  0  0  0
   -6.8429   -0.9002  -18.4392 C   0  0  0  0  0
   -5.7691   -0.1072  -20.2012 C   0  0  0  0  0
   -5.3466   -0.6687  -21.5569 C   0  0  0  0  0
   -4.6536   -2.0249  -21.4851 C   0  0  0  0  0
   -3.2014   -1.6807  -21.4546 C   0  0  0  0  0
   -1.5270   -5.0089  -20.0247 C   0  0  0  0  0
   -2.4669   -5.6277  -19.0031 C   0  0  0  0  0
   -2.4251   -7.1389  -19.1002 C   0  0  0  0  0
   -3.6896   -7.4745  -19.8479 C   0  0  0  0  0
   -3.6019  -10.9576  -20.8913 C   0  0  0  0  0
   -4.5038  -12.7346  -19.8483 C   0  0  0  0  0
   -4.0270  -13.9021  -20.7034 C   0  0  0  0  0
   -2.7853  -14.5460  -20.1106 C   0  0  0  0  0
   -3.1730  -15.9729  -19.8785 C   0  0  0  0  0
   -2.3608  -19.1443  -19.8869 C   0  0  0  0  0
   -1.7800  -20.5102  -19.5536 C   0  0  0  0  0
   -0.6333  -20.8556  -20.4715 C   0  0  0  0  0
   -0.6932  -22.3661  -20.5230 C   0  0  0  0  0
   -2.0362  -22.6926  -19.8976 C   0  0  0  0  0
   -3.2845  -24.8279  -20.3483 C   0  0  0  0  0
   -3.8214  -24.6137  -22.3907 C   0  0  0  0  0
   -4.2428  -24.7524  -23.7054 C   0  0  0  0  0
   -3.2215  -22.6507  -24.1813 C   0  0  0  0  0
   -3.1429  -23.5080  -22.0168 C   0  0  0  0  0
   -4.5200  -16.1183  -20.5440 C   0  0  0  0  0
   -3.8645  -16.5233  -22.9576 C   0  0  0  0  0
   -4.6353  -18.4761  -23.2749 C   0  0  0  0  0
   -5.0461  -19.7140  -23.7462 C   0  0  0  0  0
   -5.9315  -20.1713  -21.5747 C   0  0  0  0  0
   -4.8900  -18.1275  -21.9979 C   0  0  0  0  0
   -4.5672   -6.2677  -19.6040 C   0  0  0  0  0
   -6.6997   -5.8119  -20.8650 C   0  0  0  0  0
   -5.9806   -5.3484  -22.8090 C   0  0  0  0  0
   -5.7845   -5.0261  -24.1462 C   0  0  0  0  0
   -3.4435   -5.3403  -23.8030 C   0  0  0  0  0
   -4.9205   -5.6376  -22.0240 C   0  0  0  0  0
   -3.1591   -0.2647  -21.9998 C   0  0  0  0  0
   -1.6377    1.6849  -21.5510 C   0  0  0  0  0
   -1.5632    1.7347  -19.4318 C   0  0  0  0  0
   -1.3524    1.9989  -18.0889 C   0  0  0  0  0
   -2.7003    0.1034  -17.5692 C   0  0  0  0  0
   -2.3237    0.6823  -19.7987 C   0  0  0  0  0
   -2.7941  -23.6211  -20.7297 N   0  0  0  0  0
   -3.9308  -25.4732  -21.3606 N   0  0  0  0  0
   -4.9743  -25.8987  -24.1359 N   0  0  0  0  0
   -3.9344  -23.7535  -24.5824 N   0  0  0  0  0
   -2.8175  -22.5171  -22.8819 N   0  0  0  0  0
   -4.4134  -16.9000  -21.7725 N   0  0  0  0  0
   -3.9855  -17.4847  -23.9167 N   0  0  0  0  0
   -4.8284  -20.1055  -25.0955 N   0  0  0  0  0
   -5.6966  -20.5467  -22.8726 N   0  0  0  0  0
   -5.5297  -18.9423  -21.1270 N   0  0  0  0  0
   -5.3498   -5.9374  -20.7943 N   0  0  0  0  0
   -7.1271   -5.4413  -22.1067 N   0  0  0  0  0
   -6.8740   -4.7199  -25.0077 N   0  0  0  0  0
   -4.5021   -5.0270  -24.6188 N   0  0  0  0  0
   -3.6484   -5.6490  -22.4859 N   0  0  0  0  0
   -2.3827    0.6233  -21.1368 N   0  0  0  0  0
   -1.1091    2.3951  -20.5146 N   0  0  0  0  0
   -0.5615    3.1106  -17.6644 N   0  0  0  0  0
   -1.9366    1.1709  -17.1740 N   0  0  0  0  0
   -2.8989   -0.1508  -18.8972 N   0  0  0  0  0
  1  6  1  0  0  0
  1  7  1  0  0  0
  1 30  1  0  0  0
  2 10  1  0  0  0
  2 12  1  0  0  0
  2 28  1  0  0  0
  3 14  1  0  0  0
  3 16  1  0  0  0
  3 39  1  0  0  0
  4 19  1  0  0  0
  4 21  1  0  0  0
  4 25  1  0  0  0
 30  8  1  0  0  0
 31  8  1  0  0  0
 32 31  1  0  0  0
 32 33  1  0  0  0
 32 29  1  0  0  0
 33  9  1  0  0  0
 33 34  1  0  0  0
 34 10  1  0  0  0
 34 66  1  0  0  0
 35 12  1  0  0  0
 36 35  1  0  0  0
 36 37  1  0  0  0
 36 27  1  0  0  0
 37 13  1  0  0  0
 37 38  1  0  0  0
 38 14  1  0  0  0
 38 60  1  0  0  0
 39 17  1  0  0  0
 40 17  1  0  0  0
 41 40  1  0  0  0
 41 42  1  0  0  0
 41 26  1  0  0  0
 42 18  1  0  0  0
 42 43  1  0  0  0
 43 19  1  0  0  0
 43 54  1  0  0  0
 44 21  1  0  0  0
 45 44  1  0  0  0
 45 46  1  0  0  0
 45 24  1  0  0  0
 46 22  1  0  0  0
 46 47  1  0  0  0
 47 23  1  0  0  0
 47 48  1  0  0  0
 48 24  1  0  0  0
 48 72  1  0  0  0
 50 73  1  0  0  0
 51 74  1  0  0  0
 51 75  1  0  0  0
 52 76  1  0  0  0
 53 72  1  0  0  0
 53 50  1  0  0  0
 54 26  1  0  0  0
 54 77  1  0  0  0
 56 78  1  0  0  0
 57 79  1  0  0  0
 57 80  1  0  0  0
 58 81  1  0  0  0
 59 77  1  0  0  0
 59 56  1  0  0  0
 60 27  1  0  0  0
 60 82  1  0  0  0
 62 83  1  0  0  0
 63 84  1  0  0  0
 63 85  1  0  0  0
 64 86  1  0  0  0
 65 82  1  0  0  0
 65 62  1  0  0  0
 66 29  1  0  0  0
 66 87  1  0  0  0
 68 88  1  0  0  0
 69 89  1  0  0  0
 69 90  1  0  0  0
 70 91  1  0  0  0
 71 87  1  0  0  0
 71 68  1  0  0  0
 72 49  1  0  0  0
 77 55  1  0  0  0
 82 61  1  0  0  0
 87 67  1  0  0  0
  1  5  2  0  0  0
  2 11  2  0  0  0
  3 15  2  0  0  0
  4 20  2  0  0  0
 49 73  2  0  0  0
 50 51  2  0  0  0
 52 75  2  0  0  0
 53 76  2  0  0  0
 55 78  2  0  0  0
 56 57  2  0  0  0
 58 80  2  0  0  0
 59 81  2  0  0  0
 61 83  2  0  0  0
 62 63  2  0  0  0
 64 85  2  0  0  0
 65 86  2  0  0  0
 67 88  2  0  0  0
 68 69  2  0  0  0
 70 90  2  0  0  0
 71 91  2  0  0  0
M  END
> <rmsd>
0.659006894

$$$$
CHEMBL2057899 PubChem-11708011


 90101  0  0  0  0  0  0  0  0999 V2000
   -9.9956   10.5505  -16.9261 C   0  0  0  0  0
   -9.9127   11.6255  -17.9919 C   0  0  0  0  0
   -8.6351   11.4506  -18.7945 C   0  0  0  0  0
   -7.8183   12.6530  -18.4146 C   0  0  0  0  0
   -8.8696   13.6282  -17.9450 C   0  0  0  0  0
   -7.1331   14.6126  -16.3669 C   0  0  0  0  0
   -8.1667   16.3146  -15.6271 C   0  0  0  0  0
   -8.6127   17.4743  -15.0023 C   0  0  0  0  0
  -10.6785   17.2265  -16.1702 C   0  0  0  0  0
   -8.9792   15.6617  -16.4859 C   0  0  0  0  0
  -11.0568    7.6403  -16.4511 C   0  0  0  0  0
   -9.5680    6.4655  -17.6092 C   0  0  0  0  0
   -9.5550    5.0985  -16.9779 C   0  0  0  0  0
   -8.0865    4.7380  -17.0227 C   0  0  0  0  0
   -7.8276    3.2401  -17.0189 C   0  0  0  0  0
   -6.3365    0.2820  -17.6644 C   0  0  0  0  0
   -7.0613   -0.5931  -18.6546 C   0  0  0  0  0
   -6.2133   -1.8350  -18.6920 C   0  0  0  0  0
   -6.3401   -2.5170  -20.0395 C   0  0  0  0  0
   -4.9387   -6.4082  -20.3460 C   0  0  0  0  0
   -3.5611   -6.8930  -19.9906 C   0  0  0  0  0
   -3.8168   -8.1644  -19.2031 C   0  0  0  0  0
   -3.4124   -7.9666  -17.7518 C   0  0  0  0  0
   -5.7801   -7.6541  -20.2126 C   0  0  0  0  0
   -7.5150   -6.6904  -18.6435 C   0  0  0  0  0
   -9.2976   -6.9755  -19.7626 C   0  0  0  0  0
  -10.5832   -7.0028  -20.2877 C   0  0  0  0  0
   -9.6770   -8.0454  -22.2378 C   0  0  0  0  0
   -8.2657   -7.4814  -20.4719 C   0  0  0  0  0
   -4.9503   -0.3511  -17.6031 C   0  0  0  0  0
   -2.6515    0.6410  -17.4056 C   0  0  0  0  0
   -2.7260    2.2592  -18.7849 C   0  0  0  0  0
   -2.5072    3.3741  -19.5805 C   0  0  0  0  0
   -4.7413    3.1434  -20.3849 C   0  0  0  0  0
   -3.9208    1.6308  -18.8072 C   0  0  0  0  0
   -8.1970    6.5774  -18.2662 C   0  0  0  0  0
   -9.0533    6.3221  -20.6343 C   0  0  0  0  0
   -8.0524    7.9153  -21.6190 C   0  0  0  0  0
   -7.4998    8.8381  -22.4974 C   0  0  0  0  0
   -6.2394    9.7171  -20.6704 C   0  0  0  0  0
   -7.6944    7.9289  -20.3159 C   0  0  0  0  0
   -8.9561   11.4744  -20.1534 O   0  0  0  0  0
   -7.1044   13.1778  -19.4945 O   0  0  0  0  0
   -9.9297   12.8970  -17.3826 O   0  0  0  0  0
  -11.2790   10.5267  -16.3712 O   0  0  0  0  0
  -10.3453    9.1773  -14.3107 O   0  0  0  0  0
  -12.9097    9.0006  -14.7733 O   0  0  0  0  0
   -9.6861    7.4492  -16.6255 O   0  0  0  0  0
   -6.4870    3.0043  -16.7063 O   0  0  0  0  0
   -7.4632    1.9610  -14.4816 O   0  0  0  0  0
   -4.9386    1.5270  -14.9685 O   0  0  0  0  0
   -6.9345    0.2486  -16.3952 O   0  0  0  0  0
   -5.6457   -3.7283  -20.0111 O   0  0  0  0  0
   -7.3084   -4.6619  -21.8196 O   0  0  0  0  0
   -5.2212   -3.3860  -22.7391 O   0  0  0  0  0
   -4.9976   -5.9010  -21.6508 O   0  0  0  0  0
   -2.0244   -7.8441  -17.6514 O   0  0  0  0  0
   -2.1727   -8.5328  -15.1201 O   0  0  0  0  0
   -2.5469   -5.9861  -15.6559 O   0  0  0  0  0
   -0.0622   -7.1502  -15.8422 O   0  0  0  0  0
   -5.1823   -8.5112  -19.2713 O   0  0  0  0  0
   -2.8192   -7.2105  -21.1307 O   0  0  0  0  0
   -4.8808   -1.4505  -18.4751 O   0  0  0  0  0
   -8.3569   -0.8990  -18.2429 O   0  0  0  0  0
   -7.5218    5.3494  -18.1497 O   0  0  0  0  0
  -10.3065    4.2377  -17.7821 O   0  0  0  0  0
   -8.3519   14.5831  -16.9669 N   0  0  0  0  0
   -6.9845   15.6791  -15.5277 N   0  0  0  0  0
   -7.7877   18.1956  -14.0932 N   0  0  0  0  0
   -9.8744   17.9063  -15.2891 N   0  0  0  0  0
  -10.2312   16.0926  -16.7829 N   0  0  0  0  0
   -7.1310   -7.3100  -19.7895 N   0  0  0  0  0
   -8.8610   -6.4766  -18.5899 N   0  0  0  0  0
  -11.6957   -6.4688  -19.5751 N   0  0  0  0  0
  -10.7454   -7.5459  -21.5313 N   0  0  0  0  0
   -8.4159   -8.0151  -21.7059 N   0  0  0  0  0
   -3.9039    0.6111  -17.9319 N   0  0  0  0  0
   -1.8956    1.6585  -17.9096 N   0  0  0  0  0
   -1.2602    4.0637  -19.5738 N   0  0  0  0  0
   -3.5336    3.7997  -20.3730 N   0  0  0  0  0
   -4.9454    2.0450  -19.5955 N   0  0  0  0  0
   -8.3207    6.9428  -19.6717 N   0  0  0  0  0
   -8.9119    6.9067  -21.8582 N   0  0  0  0  0
   -7.8527    8.8595  -23.8766 N   0  0  0  0  0
   -6.5925    9.7279  -21.9966 N   0  0  0  0  0
   -6.7911    8.8049  -19.8120 N   0  0  0  0  0
  -11.3563    9.1157  -15.4354 P   0  0  0  0  0
   -6.4943    1.6974  -15.6152 P   0  0  0  0  0
   -5.8371   -4.4232  -21.5514 P   0  0  0  0  0
   -1.7231   -7.4158  -16.0380 P   0  0  0  0  0
  1 45  1  0  0  0
  2  1  1  0  0  0
  2  3  1  0  0  0
  2 44  1  0  0  0
  3 42  1  0  0  0
  3  4  1  0  0  0
  4 43  1  0  0  0
  4  5  1  0  0  0
  5 44  1  0  0  0
  5 67  1  0  0  0
  7 68  1  0  0  0
  8 69  1  0  0  0
  8 70  1  0  0  0
  9 71  1  0  0  0
 10 67  1  0  0  0
 10  7  1  0  0  0
 11 48  1  0  0  0
 12 48  1  0  0  0
 12 13  1  0  0  0
 13 14  1  0  0  0
 13 66  1  0  0  0
 14 15  1  0  0  0
 14 65  1  0  0  0
 15 49  1  0  0  0
 16 52  1  0  0  0
 16 17  1  0  0  0
 17 18  1  0  0  0
 17 64  1  0  0  0
 18 19  1  0  0  0
 18 63  1  0  0  0
 19 53  1  0  0  0
 20 56  1  0  0  0
 20 21  1  0  0  0
 21 22  1  0  0  0
 21 62  1  0  0  0
 22 23  1  0  0  0
 22 61  1  0  0  0
 23 57  1  0  0  0
 24 61  1  0  0  0
 24 72  1  0  0  0
 24 20  1  0  0  0
 26 73  1  0  0  0
 27 74  1  0  0  0
 27 75  1  0  0  0
 28 76  1  0  0  0
 29 72  1  0  0  0
 29 26  1  0  0  0
 30 63  1  0  0  0
 30 77  1  0  0  0
 30 16  1  0  0  0
 32 78  1  0  0  0
 33 79  1  0  0  0
 33 80  1  0  0  0
 34 81  1  0  0  0
 35 77  1  0  0  0
 35 32  1  0  0  0
 36 65  1  0  0  0
 36 82  1  0  0  0
 36 12  1  0  0  0
 38 83  1  0  0  0
 39 84  1  0  0  0
 39 85  1  0  0  0
 40 86  1  0  0  0
 41 82  1  0  0  0
 41 38  1  0  0  0
 67  6  1  0  0  0
 72 25  1  0  0  0
 77 31  1  0  0  0
 82 37  1  0  0  0
 87 45  1  0  0  0
 87 47  1  0  0  0
 87 11  1  0  0  0
 88 49  1  0  0  0
 88 51  1  0  0  0
 88 52  1  0  0  0
 89 53  1  0  0  0
 89 55  1  0  0  0
 89 56  1  0  0  0
 90 57  1  0  0  0
 90 59  1  0  0  0
 90 60  1  0  0  0
  6 68  2  0  0  0
  7  8  2  0  0  0
  9 70  2  0  0  0
 10 71  2  0  0  0
 25 73  2  0  0  0
 26 27  2  0  0  0
 28 75  2  0  0  0
 29 76  2  0  0  0
 31 78  2  0  0  0
 32 33  2  0  0  0
 34 80  2  0  0  0
 35 81  2  0  0  0
 37 83  2  0  0  0
 38 39  2  0  0  0
 40 85  2  0  0  0
 41 86  2  0  0  0
 87 46  2  0  0  0
 88 50  2  0  0  0
 89 54  2  0  0  0
 90 58  2  0  0  0
M  END
> <rmsd>
0.629487038

$$$$
CHEMBL1950792 PubChem-165888


 51 55  0  0  0  0  0  0  0  0999 V2000
   -5.4116  -15.0317  -23.0674 N   0  0  0  0  0
   -3.6677  -14.1925  -24.5258 N   0  0  0  0  0
   -1.7037  -13.1561  -23.6781 N   0  0  0  0  0
   -3.6078  -14.0688  -20.8787 N   0  0  0  0  0
   -1.6238  -13.0438  -21.2635 N   0  0  0  0  0
   -4.1906    0.4995  -18.0106 N   0  0  0  0  0
   -2.8079    1.6671  -19.5308 N   0  0  0  0  0
   -4.1402  -14.4178  -23.2664 C   0  0  0  0  0
   -2.4637  -13.5710  -24.7346 C   0  0  0  0  0
   -2.1782  -13.3883  -22.4288 C   0  0  0  0  0
   -3.3591  -13.9991  -22.1982 C   0  0  0  0  0
   -2.5117  -13.4726  -20.3259 C   0  0  0  0  0
   -0.3756  -12.3006  -21.0725 C   0  0  0  0  0
   -0.5081  -10.0842  -20.5831 C   0  0  0  0  0
   -1.9438   -9.6957  -20.2473 C   0  0  0  0  0
   -6.8800   -2.7829  -19.7332 C   0  0  0  0  0
   -6.6357   -1.9823  -18.4697 C   0  0  0  0  0
   -5.3414   -0.3482  -17.6872 C   0  0  0  0  0
   -3.3887    0.8898  -16.9791 C   0  0  0  0  0
   -2.2743    1.6924  -17.2097 C   0  0  0  0  0
   -1.9980    2.0745  -18.5195 C   0  0  0  0  0
   -3.9008    0.8937  -19.2911 C   0  0  0  0  0
   -6.6535    0.3520  -17.9757 C   0  0  0  0  0
   -7.5500   -0.7742  -18.4408 C   0  0  0  0  0
    0.1647  -10.6989  -19.3768 C   0  0  0  0  0
   -0.0212  -12.1769  -19.5983 C   0  0  0  0  0
   -0.4904  -11.0132  -21.6462 O   0  0  0  0  0
   -2.1515   -8.3363  -20.5073 O   0  0  0  0  0
   -0.4729   -6.9662  -19.0547 O   0  0  0  0  0
   -2.0461   -8.5579  -17.7114 O   0  0  0  0  0
   -2.9894   -6.2259  -18.8267 O   0  0  0  0  0
   -4.0296   -4.2378  -20.1684 O   0  0  0  0  0
   -1.8971   -5.2651  -21.2128 O   0  0  0  0  0
   -4.3182   -6.5876  -21.2822 O   0  0  0  0  0
   -5.0621   -8.2068  -19.3569 O   0  0  0  0  0
   -6.7532   -7.8725  -21.2820 O   0  0  0  0  0
   -6.2652   -5.8862  -19.3578 O   0  0  0  0  0
   -8.6787   -6.0050  -20.3964 O   0  0  0  0  0
   -6.8858   -4.7825  -21.8567 O   0  0  0  0  0
   -7.9280   -3.6774  -19.5242 O   0  0  0  0  0
   -5.3042   -1.5462  -18.4210 O   0  0  0  0  0
   -0.9982    2.7969  -18.7647 O   0  0  0  0  0
   -4.6296    0.5397  -20.2567 O   0  0  0  0  0
   -7.1335    0.9620  -16.8130 O   0  0  0  0  0
   -8.6034   -1.0096  -17.5511 O   0  0  0  0  0
    1.5195  -10.3489  -19.3898 O   0  0  0  0  0
    1.1294  -12.9085  -19.3013 O   0  0  0  0  0
   -1.8852   -7.5066  -19.0374 P   0  0  0  0  0
   -3.3280   -5.5593  -20.3552 P   0  0  0  0  0
   -5.5891   -7.1454  -20.2923 P   0  0  0  0  0
   -7.4597   -5.1140  -20.2957 P   0  0  0  0  0
  1  8  1  0  0  0
  5 10  1  0  0  0
  6 19  1  0  0  0
  7 22  1  0  0  0
  9  2  1  0  0  0
 10  3  1  0  0  0
 11  4  1  0  0  0
 11  8  1  0  0  0
 12  5  1  0  0  0
 13  5  1  0  0  0
 13 27  1  0  0  0
 14 27  1  0  0  0
 14 15  1  0  0  0
 14 25  1  0  0  0
 15 28  1  0  0  0
 16 40  1  0  0  0
 17 16  1  0  0  0
 17 41  1  0  0  0
 18 41  1  0  0  0
 18  6  1  0  0  0
 18 23  1  0  0  0
 20 21  1  0  0  0
 21  7  1  0  0  0
 22  6  1  0  0  0
 23 44  1  0  0  0
 23 24  1  0  0  0
 24 45  1  0  0  0
 24 17  1  0  0  0
 25 46  1  0  0  0
 25 26  1  0  0  0
 26 47  1  0  0  0
 26 13  1  0  0  0
 48 28  1  0  0  0
 48 30  1  0  0  0
 48 31  1  0  0  0
 49 31  1  0  0  0
 49 33  1  0  0  0
 49 34  1  0  0  0
 50 34  1  0  0  0
 50 36  1  0  0  0
 50 37  1  0  0  0
 51 37  1  0  0  0
 51 39  1  0  0  0
 51 40  1  0  0  0
  8  2  2  0  0  0
  9  3  2  0  0  0
 10 11  2  0  0  0
 12  4  2  0  0  0
 19 20  2  0  0  0
 21 42  2  0  0  0
 22 43  2  0  0  0
 48 29  2  0  0  0
 49 32  2  0  0  0
 50 35  2  0  0  0
 51 38  2  0  0  0
M  END
> <rmsd>
0.820667386

$$$$
CHEMBL4437267 PubChem-155512305


 67 72  0  0  0  0  0  0  0  0999 V2000
   -7.8334   -1.1737  -20.9768 C   0  0  0  0  0
   -8.1490   -2.4447  -20.2496 C   0  0  0  0  0
   -8.8115   -1.9732  -18.9557 C   0  0  0  0  0
   -8.4164   -0.0778  -20.1108 C   0  0  0  0  0
   -7.4630    1.1140  -20.0727 C   0  0  0  0  0
   -8.1009    2.2891  -19.3315 C   0  0  0  0  0
   -8.6061    2.9413  -17.0017 C   0  0  0  0  0
   -8.4740    2.6742  -15.5520 C   0  0  0  0  0
   -9.0842    3.5522  -14.6446 C   0  0  0  0  0
   -8.9737    3.3492  -13.2686 C   0  0  0  0  0
   -8.2457    2.2637  -12.7783 C   0  0  0  0  0
   -7.6269    1.3759  -13.6666 C   0  0  0  0  0
   -7.7380    1.5745  -15.0514 C   0  0  0  0  0
   -5.0911    1.5458  -19.4744 C   0  0  0  0  0
   -3.8811    1.1065  -18.7458 C   0  0  0  0  0
   -2.6637    1.8256  -18.7887 C   0  0  0  0  0
   -1.5494    1.3624  -18.0732 C   0  0  0  0  0
   -1.6396    0.1871  -17.3147 C   0  0  0  0  0
   -2.8383   -0.5254  -17.2705 C   0  0  0  0  0
   -3.9490   -0.0687  -17.9820 C   0  0  0  0  0
   -8.5332   -3.9837  -17.5367 C   0  0  0  0  0
   -7.6321   -4.7524  -16.6453 C   0  0  0  0  0
   -7.8464   -6.1316  -16.4916 C   0  0  0  0  0
   -6.9815   -6.9088  -15.7196 C   0  0  0  0  0
   -5.8849   -6.3166  -15.0932 C   0  0  0  0  0
   -5.6574   -4.9408  -15.2292 C   0  0  0  0  0
   -6.5268   -4.1552  -15.9979 C   0  0  0  0  0
   -6.7607   -4.4742  -20.3715 C   0  0  0  0  0
   -5.6522   -5.2556  -19.7818 C   0  0  0  0  0
   -4.7875   -4.6143  -18.8819 C   0  0  0  0  0
   -3.7542   -5.3167  -18.2610 C   0  0  0  0  0
   -3.5725   -6.6740  -18.5286 C   0  0  0  0  0
   -4.4199   -7.3311  -19.4300 C   0  0  0  0  0
   -5.4591   -6.6287  -20.0584 C   0  0  0  0  0
   -9.7338   -1.3064  -22.6157 C   0  0  0  0  0
  -10.1544   -1.2738  -24.0345 C   0  0  0  0  0
   -9.1661   -1.1313  -25.0195 C   0  0  0  0  0
   -9.5048   -1.1003  -26.3728 C   0  0  0  0  0
  -10.8394   -1.2128  -26.7629 C   0  0  0  0  0
  -11.8413   -1.3519  -25.7957 C   0  0  0  0  0
  -11.5072   -1.3835  -24.4327 C   0  0  0  0  0
   -8.6218   -0.5885  -18.8164 O   0  0  0  0  0
   -8.0840    2.0431  -17.9309 O   0  0  0  0  0
   -9.1897    3.9872  -17.3982 O   0  0  0  0  0
   -7.1055    0.6836  -15.9113 O   0  0  0  0  0
   -6.8915    0.3008  -13.1742 O   0  0  0  0  0
   -8.1328    2.0744  -11.4069 O   0  0  0  0  0
   -6.2310    0.7355  -19.4610 O   0  0  0  0  0
   -5.1062    2.6420  -20.0984 O   0  0  0  0  0
   -0.5410   -0.2776  -16.6015 O   0  0  0  0  0
   -0.3519    2.0708  -18.1168 O   0  0  0  0  0
   -2.5478    2.9932  -19.5415 O   0  0  0  0  0
   -8.2748   -2.6380  -17.8155 O   0  0  0  0  0
   -9.5164   -4.5579  -18.0811 O   0  0  0  0  0
   -6.2735   -2.7914  -16.1214 O   0  0  0  0  0
   -4.5585   -4.3529  -14.6151 O   0  0  0  0  0
   -5.0161   -7.0980  -14.3463 O   0  0  0  0  0
   -6.9405   -3.1447  -19.9822 O   0  0  0  0  0
   -7.5647   -5.0037  -21.1899 O   0  0  0  0  0
   -6.2905   -7.3049  -20.9466 O   0  0  0  0  0
   -4.2309   -8.6819  -19.7006 O   0  0  0  0  0
   -2.5471   -7.3648  -17.8964 O   0  0  0  0  0
   -8.3744   -1.1586  -22.3011 O   0  0  0  0  0
  -10.5834   -1.4695  -21.6976 O   0  0  0  0  0
  -12.5235   -1.5226  -23.4915 O   0  0  0  0  0
  -13.1693   -1.4628  -26.1891 O   0  0  0  0  0
  -11.1662   -1.1877  -28.1128 O   0  0  0  0  0
  1  2  1  0  0  0
  1 63  1  0  0  0
  2  3  1  0  0  0
  2 58  1  0  0  0
  3 42  1  0  0  0
  3 53  1  0  0  0
  4 42  1  0  0  0
  4  5  1  0  0  0
  4  1  1  0  0  0
  5  6  1  0  0  0
  5 48  1  0  0  0
  6 43  1  0  0  0
  7 43  1  0  0  0
  7  8  1  0  0  0
  9 10  1  0  0  0
 11 12  1  0  0  0
 11 47  1  0  0  0
 12 46  1  0  0  0
 13 45  1  0  0  0
 13  8  1  0  0  0
 14 48  1  0  0  0
 14 15  1  0  0  0
 16 17  1  0  0  0
 16 52  1  0  0  0
 17 51  1  0  0  0
 18 19  1  0  0  0
 18 50  1  0  0  0
 20 15  1  0  0  0
 21 53  1  0  0  0
 21 22  1  0  0  0
 23 24  1  0  0  0
 25 26  1  0  0  0
 25 57  1  0  0  0
 26 56  1  0  0  0
 27 55  1  0  0  0
 27 22  1  0  0  0
 28 58  1  0  0  0
 28 29  1  0  0  0
 30 31  1  0  0  0
 32 33  1  0  0  0
 32 62  1  0  0  0
 33 61  1  0  0  0
 34 60  1  0  0  0
 34 29  1  0  0  0
 35 63  1  0  0  0
 35 36  1  0  0  0
 37 38  1  0  0  0
 39 40  1  0  0  0
 39 67  1  0  0  0
 40 66  1  0  0  0
 41 65  1  0  0  0
 41 36  1  0  0  0
  7 44  2  0  0  0
  8  9  2  0  0  0
 10 11  2  0  0  0
 12 13  2  0  0  0
 14 49  2  0  0  0
 15 16  2  0  0  0
 17 18  2  0  0  0
 19 20  2  0  0  0
 21 54  2  0  0  0
 22 23  2  0  0  0
 24 25  2  0  0  0
 26 27  2  0  0  0
 28 59  2  0  0  0
 29 30  2  0  0  0
 31 32  2  0  0  0
 33 34  2  0  0  0
 35 64  2  0  0  0
 36 37  2  0  0  0
 38 39  2  0  0  0
 40 41  2  0  0  0
M  END
> <rmsd>
0.727476954

$$$$
CHEMBL4796159 PubChem-162672445


 47 50  0  0  0  0  0  0  0  0999 V2000
   -2.0522   -7.3980  -18.1951 N   0  0  0  0  0
   -3.5041   -4.6700  -16.5206 N   0  0  0  0  0
   -6.2820   -2.9835  -17.7690 N   0  0  0  0  0
   -9.6399   -4.6976  -18.1884 N   0  0  0  0  0
   -9.4068   -3.8635  -20.8454 N   0  0  0  0  0
   -4.1250    1.2098  -16.1135 N   0  0  0  0  0
   -3.1130   -7.0455  -17.2666 C   0  0  0  0  0
   -3.6094   -5.6649  -17.5422 C   0  0  0  0  0
   -4.0182   -3.3181  -16.7006 C   0  0  0  0  0
   -5.5116   -3.3150  -16.6075 C   0  0  0  0  0
   -7.7441   -3.0227  -17.8409 C   0  0  0  0  0
   -8.2880   -4.4284  -17.7888 C   0  0  0  0  0
  -10.5932   -3.6773  -18.5999 C   0  0  0  0  0
  -10.2758   -3.1419  -19.9648 C   0  0  0  0  0
   -9.1904   -3.4664  -22.2346 C   0  0  0  0  0
   -7.9598   -4.1067  -22.8054 C   0  0  0  0  0
  -10.4329   -3.7420  -23.0963 C   0  0  0  0  0
  -10.7623   -5.1984  -23.2266 C   0  0  0  0  0
  -10.6712   -5.8129  -24.4802 C   0  0  0  0  0
  -10.9891   -7.1676  -24.6223 C   0  0  0  0  0
  -11.4032   -7.9101  -23.5114 C   0  0  0  0  0
  -11.5071   -7.2975  -22.2585 C   0  0  0  0  0
  -11.1929   -5.9433  -22.1167 C   0  0  0  0  0
  -11.9463   -4.3657  -18.6182 C   0  0  0  0  0
  -11.6690   -5.8625  -18.5539 C   0  0  0  0  0
  -10.2351   -6.0138  -18.0737 C   0  0  0  0  0
   -8.3835   -2.1412  -16.7720 C   0  0  0  0  0
   -8.1716   -0.6974  -17.0814 C   0  0  0  0  0
   -3.4019   -2.3894  -15.6647 C   0  0  0  0  0
   -3.5216   -0.9629  -16.0947 C   0  0  0  0  0
   -4.2390    0.0348  -15.4420 C   0  0  0  0  0
   -3.3378    0.9399  -17.1741 C   0  0  0  0  0
   -2.9486   -0.3712  -17.1935 C   0  0  0  0  0
   -2.1282   -0.8893  -18.1946 C   0  0  0  0  0
   -1.7035   -0.0069  -19.2039 C   0  0  0  0  0
   -2.1040    1.3477  -19.1877 C   0  0  0  0  0
   -2.9338    1.8363  -18.1619 C   0  0  0  0  0
   -4.2401   -8.0748  -17.3143 C   0  0  0  0  0
   -4.1083   -5.3800  -18.6649 O   0  0  0  0  0
   -6.0802   -3.6272  -15.5248 O   0  0  0  0  0
   -7.5533   -5.3817  -17.4044 O   0  0  0  0  0
  -10.8024   -2.0600  -20.3371 O   0  0  0  0  0
   -7.4059   -5.0754  -22.2208 O   0  0  0  0  0
   -7.4341   -3.6382  -24.0037 O   0  0  0  0  0
   -8.6834   -0.1860  -18.1118 O   0  0  0  0  0
   -7.4138    0.0876  -16.2226 O   0  0  0  0  0
   -4.7439   -8.2112  -18.6123 O   0  0  0  0  0
  6 32  1  0  0  0
  7  1  1  0  0  0
  7  8  1  0  0  0
  7 38  1  0  0  0
  8  2  1  0  0  0
  9  2  1  0  0  0
  9 10  1  0  0  0
  9 29  1  0  0  0
 10  3  1  0  0  0
 11  3  1  0  0  0
 11 12  1  0  0  0
 11 27  1  0  0  0
 12  4  1  0  0  0
 13  4  1  0  0  0
 13 14  1  0  0  0
 13 24  1  0  0  0
 14  5  1  0  0  0
 15  5  1  0  0  0
 15 16  1  0  0  0
 15 17  1  0  0  0
 16 44  1  0  0  0
 17 18  1  0  0  0
 19 20  1  0  0  0
 21 22  1  0  0  0
 23 18  1  0  0  0
 24 25  1  0  0  0
 25 26  1  0  0  0
 26  4  1  0  0  0
 27 28  1  0  0  0
 28 46  1  0  0  0
 29 30  1  0  0  0
 31  6  1  0  0  0
 33 34  1  0  0  0
 33 30  1  0  0  0
 35 36  1  0  0  0
 37 32  1  0  0  0
 38 47  1  0  0  0
  8 39  2  0  0  0
 10 40  2  0  0  0
 12 41  2  0  0  0
 14 42  2  0  0  0
 16 43  2  0  0  0
 18 19  2  0  0  0
 20 21  2  0  0  0
 22 23  2  0  0  0
 28 45  2  0  0  0
 30 31  2  0  0  0
 32 33  2  0  0  0
 34 35  2  0  0  0
 36 37  2  0  0  0
M  END
> <rmsd>
0.694594026

$$$$
CHEMBL3343220 PubChem-101885384


 49 52  0  0  0  0  0  0  0  0999 V2000
   -5.6464   -0.2933  -18.0356 N   0  0  0  0  0
   -8.6476   -0.4185  -18.6625 N   0  0  0  0  0
   -5.6914   -6.4771  -18.8899 N   0  0  0  0  0
   -4.3787    0.3693  -17.9535 C   0  0  0  0  0
   -3.3628   -0.0096  -18.8373 C   0  0  0  0  0
   -2.1146    0.6165  -18.7898 C   0  0  0  0  0
   -1.8766    1.6300  -17.8576 C   0  0  0  0  0
   -2.8862    2.0233  -16.9677 C   0  0  0  0  0
   -4.1341    1.3886  -17.0216 C   0  0  0  0  0
   -2.6485    3.0980  -15.9911 C   0  0  0  0  0
   -3.5438    4.5761  -14.2215 C   0  0  0  0  0
   -4.0997    5.8437  -14.8484 C   0  0  0  0  0
   -3.1420    6.3884  -15.8942 C   0  0  0  0  0
   -3.7231    7.6240  -16.5641 C   0  0  0  0  0
   -3.4764    8.8756  -15.7309 C   0  0  0  0  0
   -4.4899    9.0211  -14.6017 C   0  0  0  0  0
   -5.8149    9.5632  -15.1137 C   0  0  0  0  0
   -6.6897    8.4359  -15.6261 C   0  0  0  0  0
   -6.7725   -0.1097  -17.1651 C   0  0  0  0  0
   -8.0361   -0.8644  -17.4155 C   0  0  0  0  0
   -7.7592   -2.3533  -17.5173 C   0  0  0  0  0
   -8.1828   -2.7532  -18.9098 C   0  0  0  0  0
   -9.0795   -1.6240  -19.3558 C   0  0  0  0  0
   -6.1100   -4.3490  -19.2924 C   0  0  0  0  0
   -6.4198   -5.5825  -19.6875 C   0  0  0  0  0
   -4.5154   -7.3294  -19.1632 C   0  0  0  0  0
   -3.7514   -6.5785  -18.1144 C   0  0  0  0  0
   -3.2664   -7.4729  -16.9616 C   0  0  0  0  0
   -4.3112   -8.4484  -16.4286 C   0  0  0  0  0
   -4.9786   -5.8880  -17.7941 C   0  0  0  0  0
   -5.1085   -4.3767  -18.1462 C   0  0  0  0  0
   -3.7953   -3.7225  -18.5601 C   0  0  0  0  0
   -7.2950   -6.0037  -20.7931 C   0  0  0  0  0
   -8.3050   -7.8672  -22.0637 C   0  0  0  0  0
   -9.7185   -7.9032  -21.4968 C   0  0  0  0  0
   -9.8585   -8.9963  -20.4498 C   0  0  0  0  0
   -9.3488   -8.5144  -19.1000 C   0  0  0  0  0
   -9.3890   -9.6432  -18.0841 C   0  0  0  0  0
  -10.8201   -9.9164  -17.6482 C   0  0  0  0  0
  -10.8647  -11.0751  -16.6672 C   0  0  0  0  0
  -10.6513  -12.3916  -17.3908 C   0  0  0  0  0
   -1.5241    3.6693  -15.9418 O   0  0  0  0  0
   -3.6737    3.4809  -15.1194 O   0  0  0  0  0
   -6.7172    0.6832  -16.1885 O   0  0  0  0  0
   -4.2465   -8.2436  -19.9855 O   0  0  0  0  0
   -2.1285   -8.1763  -17.3559 O   0  0  0  0  0
   -7.9583   -5.1563  -21.4506 O   0  0  0  0  0
   -7.3873   -7.3633  -21.1001 O   0  0  0  0  0
   -6.7327   -2.8255  -20.0126 S   0  0  0  0  0
  1  4  1  0  0  0
  1 19  1  0  0  0
  3 26  1  0  0  0
  5  6  1  0  0  0
  7  8  1  0  0  0
  8 10  1  0  0  0
  9  4  1  0  0  0
 10 43  1  0  0  0
 11 43  1  0  0  0
 11 12  1  0  0  0
 12 13  1  0  0  0
 13 14  1  0  0  0
 14 15  1  0  0  0
 15 16  1  0  0  0
 16 17  1  0  0  0
 17 18  1  0  0  0
 20 19  1  0  0  0
 20 21  1  0  0  0
 20  2  1  0  0  0
 21 22  1  0  0  0
 22 23  1  0  0  0
 22 49  1  0  0  0
 23  2  1  0  0  0
 24 49  1  0  0  0
 25  3  1  0  0  0
 25 33  1  0  0  0
 27 26  1  0  0  0
 27 28  1  0  0  0
 27 30  1  0  0  0
 28 46  1  0  0  0
 28 29  1  0  0  0
 30 31  1  0  0  0
 30  3  1  0  0  0
 31 32  1  0  0  0
 31 24  1  0  0  0
 33 48  1  0  0  0
 34 48  1  0  0  0
 34 35  1  0  0  0
 35 36  1  0  0  0
 36 37  1  0  0  0
 37 38  1  0  0  0
 38 39  1  0  0  0
 39 40  1  0  0  0
 40 41  1  0  0  0
  4  5  2  0  0  0
  6  7  2  0  0  0
  8  9  2  0  0  0
 10 42  2  0  0  0
 19 44  2  0  0  0
 24 25  2  0  0  0
 26 45  2  0  0  0
 33 47  2  0  0  0
M  END
> <rmsd>
0.586190045

$$$$
CHEMBL410091 PubChem-44310258


103109  0  0  0  0  0  0  0  0999 V2000
   -8.2296   -4.0765  -18.3389 C   0  0  0  0  0
   -8.1741   -3.5836  -19.7813 C   0  0  0  0  0
   -7.6542   -1.1420  -19.2757 C   0  0  0  0  0
   -6.6564   -0.0248  -19.3551 C   0  0  0  0  0
   -7.2641    1.3567  -19.1135 C   0  0  0  0  0
   -6.3351    2.4300  -19.5595 C   0  0  0  0  0
   -5.5883   -0.3183  -17.0394 C   0  0  0  0  0
   -4.3630   -0.6942  -16.2692 C   0  0  0  0  0
   -3.6486    0.5403  -15.7370 C   0  0  0  0  0
   -2.9118    1.2491  -16.8274 C   0  0  0  0  0
   -3.2629    2.5640  -17.1561 C   0  0  0  0  0
   -2.5829    3.2487  -18.1667 C   0  0  0  0  0
   -1.5385    2.6206  -18.8497 C   0  0  0  0  0
   -1.1756    1.3103  -18.5215 C   0  0  0  0  0
   -1.8637    0.6198  -17.5124 C   0  0  0  0  0
   -5.2582   -2.8825  -15.3274 C   0  0  0  0  0
   -5.5931   -3.6796  -14.1105 C   0  0  0  0  0
   -7.0379   -3.4354  -13.7027 C   0  0  0  0  0
   -7.3064   -3.9001  -12.2762 C   0  0  0  0  0
   -6.4589   -3.1560  -11.2511 C   0  0  0  0  0
   -6.0956   -0.8635  -10.5709 C   0  0  0  0  0
   -4.1357   -5.7316  -13.9269 C   0  0  0  0  0
   -3.9367   -7.1966  -14.1702 C   0  0  0  0  0
   -4.9218   -8.0398  -13.3575 C   0  0  0  0  0
   -4.5620   -8.0068  -11.9063 C   0  0  0  0  0
   -5.3538   -7.5137  -10.8758 C   0  0  0  0  0
   -3.4884   -8.1173   -9.9884 C   0  0  0  0  0
   -2.4430   -8.3750   -9.0961 C   0  0  0  0  0
   -1.2599   -8.9240   -9.6169 C   0  0  0  0  0
   -1.1547   -9.2157  -10.9912 C   0  0  0  0  0
   -2.2244   -8.9547  -11.8708 C   0  0  0  0  0
   -3.3783   -8.3977  -11.3247 C   0  0  0  0  0
   -3.3018   -8.4728  -16.2468 C   0  0  0  0  0
   -3.1076   -9.8227  -15.6322 C   0  0  0  0  0
   -1.1909  -11.1591  -14.6387 C   0  0  0  0  0
    0.2852  -11.4025  -14.5537 C   0  0  0  0  0
    0.7145  -11.5710  -13.1039 C   0  0  0  0  0
    2.1321  -12.0339  -13.0200 C   0  0  0  0  0
    2.4872  -13.3088  -13.4871 C   0  0  0  0  0
    3.8214  -13.7257  -13.4408 C   0  0  0  0  0
    4.7972  -12.8681  -12.9318 C   0  0  0  0  0
    4.4443  -11.6032  -12.4535 C   0  0  0  0  0
    3.1120  -11.1850  -12.4997 C   0  0  0  0  0
   -3.5945  -10.9119  -16.5872 C   0  0  0  0  0
   -5.0735  -10.8290  -16.8095 C   0  0  0  0  0
   -4.7990  -10.4365  -19.3058 C   0  0  0  0  0
   -4.6244  -11.7830  -19.9176 C   0  0  0  0  0
   -6.9953  -14.2459  -21.1892 C   0  0  0  0  0
   -7.4107  -15.3697  -20.2422 C   0  0  0  0  0
   -8.7650  -15.0916  -19.6714 C   0  0  0  0  0
   -9.8965  -15.0440  -20.5010 C   0  0  0  0  0
  -11.1617  -14.7704  -19.9654 C   0  0  0  0  0
  -11.2949  -14.5406  -18.5877 C   0  0  0  0  0
  -10.1636  -14.5906  -17.7575 C   0  0  0  0  0
   -8.9028  -14.8640  -18.2980 C   0  0  0  0  0
   -7.1032  -14.6186  -22.6430 C   0  0  0  0  0
   -6.9860  -13.5901  -23.6845 C   0  0  0  0  0
   -5.0774   -8.1753  -20.4085 C   0  0  0  0  0
   -5.8503   -7.2856  -21.2761 C   0  0  0  0  0
   -5.4333   -5.8551  -21.4065 C   0  0  0  0  0
   -5.1124   -5.3311  -22.8071 C   0  0  0  0  0
   -6.2949   -5.0721  -23.6791 C   0  0  0  0  0
   -6.8901   -6.1152  -24.3940 C   0  0  0  0  0
   -7.9553   -5.8462  -25.2653 C   0  0  0  0  0
   -8.4023   -4.5357  -25.4418 C   0  0  0  0  0
   -7.7944   -3.4912  -24.7491 C   0  0  0  0  0
   -6.7384   -3.7581  -23.8715 C   0  0  0  0  0
   -7.5876   -4.6511  -20.6433 C   0  0  0  0  0
   -7.3321   -2.3959  -19.8717 N   0  0  0  0  0
   -5.9369    2.5125  -20.9273 N   0  0  0  0  0
   -5.5214   -0.2918  -18.4707 N   0  0  0  0  0
   -4.6985   -1.5770  -15.1586 N   0  0  0  0  0
   -6.7415   -1.7285  -11.2938 N   0  0  0  0  0
   -5.1025   -1.2766   -9.6418 N   0  0  0  0  0
   -6.4471    0.5110  -10.6478 N   0  0  0  0  0
   -5.3560   -5.0977  -14.3266 N   0  0  0  0  0
   -4.6883   -7.5825   -9.6914 N   0  0  0  0  0
   -4.0894   -7.4764  -15.5937 N   0  0  0  0  0
   -1.6937  -10.0203  -15.3428 N   0  0  0  0  0
    1.0335  -10.3111  -15.1805 N   0  0  0  0  0
    1.2033  -10.6464  -16.5303 N   0  0  0  0  0
   -5.6102  -10.5363  -18.1003 N   0  0  0  0  0
   -5.7696  -12.5713  -20.2381 N   0  0  0  0  0
   -5.6457  -13.8072  -20.8818 N   0  0  0  0  0
   -5.4533   -9.5502  -20.2633 N   0  0  0  0  0
   -6.1791   -4.9317  -20.5582 N   0  0  0  0  0
   -8.7643   -0.9824  -18.6847 O   0  0  0  0  0
   -5.9171    3.2782  -18.7270 O   0  0  0  0  0
   -6.6562   -0.0250  -16.4400 O   0  0  0  0  0
   -5.5488   -3.3232  -16.4782 O   0  0  0  0  0
   -3.2098   -5.0566  -13.3998 O   0  0  0  0  0
   -2.7746   -8.2029  -17.3643 O   0  0  0  0  0
   -1.9891  -11.9903  -14.1172 O   0  0  0  0  0
    6.1231  -13.2782  -12.8801 O   0  0  0  0  0
   -5.8612  -11.0501  -15.8565 O   0  0  0  0  0
   -3.4658  -12.1890  -20.2058 O   0  0  0  0  0
  -12.5466  -14.2571  -18.0447 O   0  0  0  0  0
   -7.3117  -15.8209  -22.9784 O   0  0  0  0  0
   -7.0008  -13.9202  -24.9000 O   0  0  0  0  0
   -6.8518  -12.2464  -23.3342 O   0  0  0  0  0
   -4.0654   -7.7313  -19.7995 O   0  0  0  0  0
   -6.8863   -7.7130  -21.8527 O   0  0  0  0  0
   -8.3378   -5.2993  -21.4198 O   0  0  0  0  0
  2  1  1  0  0  0
  2 69  1  0  0  0
  2 68  1  0  0  0
  4  3  1  0  0  0
  4  5  1  0  0  0
  4 71  1  0  0  0
  5  6  1  0  0  0
  6 70  1  0  0  0
  8  7  1  0  0  0
  8  9  1  0  0  0
  8 72  1  0  0  0
  9 10  1  0  0  0
 11 12  1  0  0  0
 13 14  1  0  0  0
 15 10  1  0  0  0
 17 16  1  0  0  0
 17 18  1  0  0  0
 17 76  1  0  0  0
 18 19  1  0  0  0
 19 20  1  0  0  0
 20 73  1  0  0  0
 21 74  1  0  0  0
 21 75  1  0  0  0
 23 22  1  0  0  0
 23 24  1  0  0  0
 23 78  1  0  0  0
 24 25  1  0  0  0
 26 77  1  0  0  0
 28 29  1  0  0  0
 30 31  1  0  0  0
 32 25  1  0  0  0
 32 27  1  0  0  0
 34 33  1  0  0  0
 34 79  1  0  0  0
 34 44  1  0  0  0
 36 35  1  0  0  0
 36 37  1  0  0  0
 36 80  1  0  0  0
 37 38  1  0  0  0
 39 40  1  0  0  0
 41 94  1  0  0  0
 41 42  1  0  0  0
 43 38  1  0  0  0
 44 45  1  0  0  0
 45 82  1  0  0  0
 46 82  1  0  0  0
 46 47  1  0  0  0
 46 85  1  0  0  0
 47 83  1  0  0  0
 48 84  1  0  0  0
 48 49  1  0  0  0
 48 56  1  0  0  0
 49 50  1  0  0  0
 51 52  1  0  0  0
 53 97  1  0  0  0
 53 54  1  0  0  0
 55 50  1  0  0  0
 56 57  1  0  0  0
 57100  1  0  0  0
 58 59  1  0  0  0
 60 59  1  0  0  0
 60 61  1  0  0  0
 60 86  1  0  0  0
 61 62  1  0  0  0
 63 64  1  0  0  0
 65 66  1  0  0  0
 67 62  1  0  0  0
 69  3  1  0  0  0
 71  7  1  0  0  0
 72 16  1  0  0  0
 76 22  1  0  0  0
 77 27  1  0  0  0
 78 33  1  0  0  0
 79 35  1  0  0  0
 80 81  1  0  0  0
 83 84  1  0  0  0
 85 58  1  0  0  0
 86 68  1  0  0  0
  3 87  2  0  0  0
  6 88  2  0  0  0
  7 89  2  0  0  0
 10 11  2  0  0  0
 12 13  2  0  0  0
 14 15  2  0  0  0
 16 90  2  0  0  0
 21 73  2  0  0  0
 22 91  2  0  0  0
 25 26  2  0  0  0
 27 28  2  0  0  0
 29 30  2  0  0  0
 31 32  2  0  0  0
 33 92  2  0  0  0
 35 93  2  0  0  0
 38 39  2  0  0  0
 40 41  2  0  0  0
 42 43  2  0  0  0
 45 95  2  0  0  0
 47 96  2  0  0  0
 50 51  2  0  0  0
 52 53  2  0  0  0
 54 55  2  0  0  0
 56 98  2  0  0  0
 57 99  2  0  0  0
 58101  2  0  0  0
 59102  2  0  0  0
 62 63  2  0  0  0
 64 65  2  0  0  0
 66 67  2  0  0  0
 68103  2  0  0  0
M  END
> <rmsd>
0.748172104

$$$$
CHEMBL5075344


 65 70  0  0  0  0  0  0  0  0999 V2000
   -5.0027   -8.2024  -18.6869 N   0  0  0  0  0
   -5.1120   -8.4923  -19.9681 N   0  0  0  0  0
   -3.9164   -8.7431  -20.4810 N   0  0  0  0  0
    0.7202   -6.0298  -17.5106 N   0  0  0  0  0
    3.2673   -8.0975  -19.2136 N   0  0  0  0  0
    6.0513  -10.1327  -19.7820 N   0  0  0  0  0
    6.6070   -8.7199  -17.2894 N   0  0  0  0  0
   -1.8781   -3.7414  -17.5674 N   0  0  0  0  0
   -4.5150   -1.3853  -16.4037 N   0  0  0  0  0
   -7.1977   -0.0389  -18.6817 N   0  0  0  0  0
   -7.9982   -3.0828  -20.0490 N   0  0  0  0  0
   -3.0003   -8.6094  -19.4981 C   0  0  0  0  0
   -3.7011   -8.2506  -18.3634 C   0  0  0  0  0
   -3.1325   -7.9730  -17.0053 C   0  0  0  0  0
   -2.0301   -6.0554  -16.7493 C   0  0  0  0  0
   -1.6371   -5.1386  -17.9092 C   0  0  0  0  0
   -0.2041   -5.3028  -18.3244 C   0  0  0  0  0
    2.0916   -6.2756  -17.9312 C   0  0  0  0  0
    3.0885   -5.7009  -16.9258 C   0  0  0  0  0
    2.9055   -6.2591  -15.5197 C   0  0  0  0  0
    3.2697   -5.1918  -14.5108 C   0  0  0  0  0
    3.8078   -7.4594  -15.3149 C   0  0  0  0  0
    2.3248   -7.7275  -18.2064 C   0  0  0  0  0
    3.6028   -9.4814  -19.5180 C   0  0  0  0  0
    2.4690  -10.1458  -20.2806 C   0  0  0  0  0
    4.8684   -9.5231  -20.3157 C   0  0  0  0  0
    7.3029  -10.1642  -20.5113 C   0  0  0  0  0
    8.2891  -10.8760  -19.6085 C   0  0  0  0  0
    7.4723  -11.5210  -18.4955 C   0  0  0  0  0
    6.0988  -10.8757  -18.5333 C   0  0  0  0  0
    5.9258   -9.9688  -17.3555 C   0  0  0  0  0
   -3.1803   -3.1960  -17.3241 C   0  0  0  0  0
   -3.3755   -1.7103  -17.2514 C   0  0  0  0  0
   -5.6815   -0.7107  -16.8818 C   0  0  0  0  0
   -5.8136   -0.3246  -18.3332 C   0  0  0  0  0
   -5.0694    0.9758  -18.5790 C   0  0  0  0  0
   -6.1245    2.0682  -18.6678 C   0  0  0  0  0
   -7.4354    1.3648  -18.9545 C   0  0  0  0  0
   -8.2273   -1.0295  -18.8122 C   0  0  0  0  0
   -7.9108   -2.4853  -18.7245 C   0  0  0  0  0
   -7.9225   -4.4948  -20.2613 C   0  0  0  0  0
   -7.7645   -5.4410  -19.1182 C   0  0  0  0  0
   -6.2993   -5.5263  -18.7357 C   0  0  0  0  0
   -6.1213   -6.3794  -17.4902 C   0  0  0  0  0
   -6.1289   -7.8645  -17.8276 C   0  0  0  0  0
   -2.1348   -1.0104  -16.7112 C   0  0  0  0  0
   -2.0006    0.3491  -17.3220 C   0  0  0  0  0
   -1.5761    0.4499  -18.6534 C   0  0  0  0  0
   -1.4489    1.6983  -19.2669 C   0  0  0  0  0
   -1.7460    2.8628  -18.5552 C   0  0  0  0  0
   -2.1682    2.7825  -17.2259 C   0  0  0  0  0
   -2.2948    1.5203  -16.5950 C   0  0  0  0  0
   -2.7321    1.4628  -15.2621 C   0  0  0  0  0
   -3.0348    2.6370  -14.5667 C   0  0  0  0  0
   -2.9052    3.8788  -15.1951 C   0  0  0  0  0
   -2.4725    3.9512  -16.5222 C   0  0  0  0  0
   -1.8679   -7.3937  -17.1195 O   0  0  0  0  0
    0.1872   -4.7585  -19.3941 O   0  0  0  0  0
    1.7248   -8.6112  -17.5377 O   0  0  0  0  0
    4.9038   -8.9755  -21.4524 O   0  0  0  0  0
    5.1989  -10.3357  -16.3947 O   0  0  0  0  0
   -4.1810   -3.9583  -17.2595 O   0  0  0  0  0
   -6.5912   -0.4115  -16.0632 O   0  0  0  0  0
   -9.4188   -0.6759  -19.0240 O   0  0  0  0  0
   -7.9614   -4.9479  -21.4337 O   0  0  0  0  0
  1  2  1  0  0  0
  8 32  1  0  0  0
  9 34  1  0  0  0
 10 39  1  0  0  0
 11 41  1  0  0  0
 12  3  1  0  0  0
 13  1  1  0  0  0
 14 13  1  0  0  0
 14 57  1  0  0  0
 15 57  1  0  0  0
 15 16  1  0  0  0
 16 17  1  0  0  0
 16  8  1  0  0  0
 17  4  1  0  0  0
 18  4  1  0  0  0
 18 19  1  0  0  0
 18 23  1  0  0  0
 19 20  1  0  0  0
 20 21  1  0  0  0
 20 22  1  0  0  0
 23  5  1  0  0  0
 24  5  1  0  0  0
 24 25  1  0  0  0
 24 26  1  0  0  0
 26  6  1  0  0  0
 27  6  1  0  0  0
 27 28  1  0  0  0
 28 29  1  0  0  0
 29 30  1  0  0  0
 30 31  1  0  0  0
 30  6  1  0  0  0
 31  7  1  0  0  0
 33 32  1  0  0  0
 33  9  1  0  0  0
 33 46  1  0  0  0
 35 34  1  0  0  0
 35 36  1  0  0  0
 35 10  1  0  0  0
 36 37  1  0  0  0
 37 38  1  0  0  0
 38 10  1  0  0  0
 40 39  1  0  0  0
 40 11  1  0  0  0
 42 41  1  0  0  0
 42 43  1  0  0  0
 43 44  1  0  0  0
 44 45  1  0  0  0
 45  1  1  0  0  0
 46 47  1  0  0  0
 48 49  1  0  0  0
 50 51  1  0  0  0
 52 53  1  0  0  0
 52 47  1  0  0  0
 54 55  1  0  0  0
 56 51  1  0  0  0
  2  3  2  0  0  0
 12 13  2  0  0  0
 17 58  2  0  0  0
 23 59  2  0  0  0
 26 60  2  0  0  0
 31 61  2  0  0  0
 32 62  2  0  0  0
 34 63  2  0  0  0
 39 64  2  0  0  0
 41 65  2  0  0  0
 47 48  2  0  0  0
 49 50  2  0  0  0
 51 52  2  0  0  0
 53 54  2  0  0  0
 55 56  2  0  0  0
M  END
> <rmsd>
0.776321352

$$$$
CHEMBL507692 PubChem-10794970


 52 59  0  0  0  0  0  0  0  0999 V2000
   -4.4804   -8.3489  -19.3678 O   0  0  0  0  0
   -2.5109   -9.6581  -20.9325 O   0  0  0  0  0
    0.2157   -9.2524  -20.0144 O   0  0  0  0  0
    0.3622   -9.6503  -17.1538 O   0  0  0  0  0
   -2.9186   -8.1632  -17.6461 O   0  0  0  0  0
   -2.7964   -8.5048  -14.7893 O   0  0  0  0  0
   -2.8313   -3.7945  -19.7331 O   0  0  0  0  0
   -6.9232   -5.1188  -22.0065 O   0  0  0  0  0
   -7.9976   -3.0671  -21.7233 O   0  0  0  0  0
   -8.9509   -0.5801  -17.7198 O   0  0  0  0  0
   -4.3240   -1.6047  -18.8807 O   0  0  0  0  0
   -6.8268    0.2100  -16.2718 O   0  0  0  0  0
   -4.4405    3.8515  -18.9551 O   0  0  0  0  0
   -1.6660    4.1697  -19.2665 O   0  0  0  0  0
   -9.3500   -4.4236  -27.8007 O   0  0  0  0  0
  -10.8295   -3.1397  -25.7855 O   0  0  0  0  0
   -3.2865   -8.8905  -18.7948 C   0  0  0  0  0
   -2.1434   -8.8978  -19.8188 C   0  0  0  0  0
   -0.8828   -9.4879  -19.1866 C   0  0  0  0  0
   -0.6234   -8.9004  -17.7974 C   0  0  0  0  0
   -1.9228   -8.9077  -16.9794 C   0  0  0  0  0
   -1.6774   -8.3043  -15.6024 C   0  0  0  0  0
   -4.6110   -7.0318  -19.8346 C   0  0  0  0  0
   -3.6531   -6.0459  -19.5431 C   0  0  0  0  0
   -3.8059   -4.7425  -20.0208 C   0  0  0  0  0
   -4.9290   -4.4099  -20.7959 C   0  0  0  0  0
   -5.8677   -5.4078  -21.1278 C   0  0  0  0  0
   -5.7146   -6.7036  -20.6292 C   0  0  0  0  0
   -7.1234   -3.8163  -22.5776 C   0  0  0  0  0
   -5.7770   -3.0644  -22.6756 C   0  0  0  0  0
   -5.1756   -3.0010  -21.2649 C   0  0  0  0  0
   -6.1470   -2.3167  -20.3224 C   0  0  0  0  0
   -7.5305   -2.3951  -20.5852 C   0  0  0  0  0
   -8.4439   -1.7942  -19.7207 C   0  0  0  0  0
   -8.0058   -1.1484  -18.5649 C   0  0  0  0  0
   -6.6303   -1.1033  -18.2607 C   0  0  0  0  0
   -5.6981   -1.6681  -19.1571 C   0  0  0  0  0
   -3.7722   -0.9007  -17.7636 C   0  0  0  0  0
   -4.7234   -0.8697  -16.5615 C   0  0  0  0  0
   -6.1161   -0.5343  -16.9976 C   0  0  0  0  0
   -3.2477    0.4464  -18.1563 C   0  0  0  0  0
   -1.8658    0.6127  -18.3111 C   0  0  0  0  0
   -1.3404    1.8539  -18.6842 C   0  0  0  0  0
   -2.1956    2.9381  -18.9058 C   0  0  0  0  0
   -3.5807    2.7793  -18.7504 C   0  0  0  0  0
   -4.1045    1.5335  -18.3857 C   0  0  0  0  0
   -7.7268   -3.9712  -23.9529 C   0  0  0  0  0
   -9.0161   -3.4903  -24.2393 C   0  0  0  0  0
   -9.5562   -3.6308  -25.5202 C   0  0  0  0  0
   -8.8168   -4.2679  -26.5261 C   0  0  0  0  0
   -7.5400   -4.7619  -26.2462 C   0  0  0  0  0
   -6.9986   -4.6167  -24.9660 C   0  0  0  0  0
 17  1  1  0  0  0
 17 18  1  0  0  0
 17  5  1  0  0  0
 18  2  1  0  0  0
 18 19  1  0  0  0
 19  3  1  0  0  0
 19 20  1  0  0  0
 20  4  1  0  0  0
 20 21  1  0  0  0
 21  5  1  0  0  0
 21 22  1  0  0  0
 22  6  1  0  0  0
 23  1  1  0  0  0
 24 25  1  0  0  0
 25  7  1  0  0  0
 26 27  1  0  0  0
 27  8  1  0  0  0
 28 23  1  0  0  0
 29  8  1  0  0  0
 29 30  1  0  0  0
 29 47  1  0  0  0
 29  9  1  0  0  0
 30 31  1  0  0  0
 31 32  1  0  0  0
 31 26  1  0  0  0
 33  9  1  0  0  0
 33 34  1  0  0  0
 35 10  1  0  0  0
 35 36  1  0  0  0
 37 11  1  0  0  0
 37 32  1  0  0  0
 38 11  1  0  0  0
 38 39  1  0  0  0
 38 41  1  0  0  0
 39 40  1  0  0  0
 40 36  1  0  0  0
 42 43  1  0  0  0
 44 45  1  0  0  0
 44 14  1  0  0  0
 45 13  1  0  0  0
 46 41  1  0  0  0
 48 49  1  0  0  0
 49 16  1  0  0  0
 50 51  1  0  0  0
 50 15  1  0  0  0
 52 47  1  0  0  0
 23 24  2  0  0  0
 25 26  2  0  0  0
 27 28  2  0  0  0
 32 33  2  0  0  0
 34 35  2  0  0  0
 36 37  2  0  0  0
 40 12  2  0  0  0
 41 42  2  0  0  0
 43 44  2  0  0  0
 45 46  2  0  0  0
 47 48  2  0  0  0
 49 50  2  0  0  0
 51 52  2  0  0  0
M  END
> <rmsd>
0.672292054

$$$$
CHEMBL1161752


 31 33  0  0  0  0  0  0  0  0999 V2000
    0.1084    2.4785  -16.5868 N   0  0  0  0  0
   -0.9608    1.0591  -14.9368 N   0  0  0  0  0
   -2.9387   -0.1703  -15.4298 N   0  0  0  0  0
   -2.1218    1.5649  -18.3655 N   0  0  0  0  0
   -3.7419    0.1361  -17.6889 N   0  0  0  0  0
   -0.9255    1.5800  -16.1994 C   0  0  0  0  0
   -1.9540    0.1928  -14.5521 C   0  0  0  0  0
   -2.8947    0.3525  -16.6797 C   0  0  0  0  0
   -1.9282    1.2049  -17.0825 C   0  0  0  0  0
   -3.2530    0.8859  -18.7116 C   0  0  0  0  0
   -4.9266   -0.7117  -17.6849 C   0  0  0  0  0
   -6.1742   -1.8627  -19.1406 C   0  0  0  0  0
   -6.2072   -2.2925  -20.5986 C   0  0  0  0  0
   -5.6375   -3.6925  -20.7608 C   0  0  0  0  0
   -6.9268   -0.5687  -18.9666 C   0  0  0  0  0
   -6.1795    0.1266  -17.8540 C   0  0  0  0  0
   -4.8501   -1.6540  -18.7256 O   0  0  0  0  0
   -7.3821   -4.7124  -18.9051 O   0  0  0  0  0
   -8.1729   -4.8216  -21.3813 O   0  0  0  0  0
   -6.2157   -6.5209  -20.4566 O   0  0  0  0  0
   -3.9738   -5.6774  -19.3455 O   0  0  0  0  0
   -5.7934   -6.6308  -17.7097 O   0  0  0  0  0
   -4.3551   -8.2729  -19.4428 O   0  0  0  0  0
   -2.3492   -7.3316  -17.7283 O   0  0  0  0  0
   -4.4006   -8.8984  -16.7328 O   0  0  0  0  0
   -2.4907   -9.9984  -18.3752 O   0  0  0  0  0
   -8.2590   -0.8275  -18.6318 O   0  0  0  0  0
   -6.9000    0.1186  -16.6563 O   0  0  0  0  0
   -6.8722   -4.9541  -20.3089 P   0  0  0  0  0
   -5.0512   -6.7336  -19.2292 P   0  0  0  0  0
   -3.4053   -8.6093  -18.0707 P   0  0  0  0  0
  1  6  1  0  0  0
  5  8  1  0  0  0
  7  2  1  0  0  0
  8  3  1  0  0  0
  9  4  1  0  0  0
  9  6  1  0  0  0
 10  5  1  0  0  0
 11  5  1  0  0  0
 11 17  1  0  0  0
 12 17  1  0  0  0
 12 13  1  0  0  0
 12 15  1  0  0  0
 13 14  1  0  0  0
 15 27  1  0  0  0
 15 16  1  0  0  0
 16 28  1  0  0  0
 16 11  1  0  0  0
 29 14  1  0  0  0
 29 19  1  0  0  0
 29 20  1  0  0  0
 30 20  1  0  0  0
 30 22  1  0  0  0
 30 23  1  0  0  0
 31 23  1  0  0  0
 31 24  1  0  0  0
 31 25  1  0  0  0
 31 26  1  0  0  0
  6  2  2  0  0  0
  7  3  2  0  0  0
  8  9  2  0  0  0
 10  4  2  0  0  0
 29 18  2  0  0  0
 30 21  2  0  0  0
M  END
> <rmsd>
0.708159268

$$$$
CHEMBL391012 PubChem-44439753


 33 35  0  0  0  0  0  0  0  0999 V2000
   -4.5706    2.3563  -15.6666 C   0  0  0  0  0
   -3.8462    1.6775  -16.7829 C   0  0  0  0  0
   -2.5888    2.1880  -17.1186 C   0  0  0  0  0
   -1.8383    1.6185  -18.1458 C   0  0  0  0  0
   -2.3397    0.5277  -18.8537 C   0  0  0  0  0
   -3.5938    0.0022  -18.5392 C   0  0  0  0  0
   -4.0710   -1.0822  -19.2672 C   0  0  0  0  0
   -5.3162   -1.6169  -18.9605 C   0  0  0  0  0
   -7.3812   -1.6913  -17.6666 C   0  0  0  0  0
   -8.3969   -3.6564  -18.1812 C   0  0  0  0  0
   -7.9516   -4.6227  -19.2722 C   0  0  0  0  0
   -9.2788   -2.5670  -18.7568 C   0  0  0  0  0
   -8.3753   -1.3647  -18.7544 C   0  0  0  0  0
   -5.6373   -0.0218  -17.2213 C   0  0  0  0  0
   -4.3723    0.5626  -17.4945 C   0  0  0  0  0
   -6.0739   -1.0952  -17.9542 N   0  0  0  0  0
   -7.2739   -3.0909  -17.5387 O   0  0  0  0  0
   -7.1220   -3.9762  -20.1936 O   0  0  0  0  0
   -8.0499   -5.4444  -22.1518 O   0  0  0  0  0
   -5.6501   -4.4888  -22.4710 O   0  0  0  0  0
   -6.1977   -6.5697  -20.6804 O   0  0  0  0  0
   -3.6810   -6.1637  -21.2956 O   0  0  0  0  0
   -4.5708   -4.8317  -19.2157 O   0  0  0  0  0
   -4.1656   -7.5879  -19.1365 O   0  0  0  0  0
   -2.7801   -6.1288  -17.4183 O   0  0  0  0  0
   -2.0691   -8.6228  -17.6762 O   0  0  0  0  0
   -1.5286   -6.7713  -19.6307 O   0  0  0  0  0
  -10.3728   -2.3792  -17.9077 O   0  0  0  0  0
   -9.0696   -0.1874  -18.4545 O   0  0  0  0  0
   -6.3715    0.4393  -16.3037 O   0  0  0  0  0
   -6.7808   -5.1318  -21.3873 P   0  0  0  0  0
   -4.6202   -6.2683  -20.1140 P   0  0  0  0  0
   -2.6473   -7.2318  -18.4466 P   0  0  0  0  0
  1  2  1  0  0  0
  3  4  1  0  0  0
  5  6  1  0  0  0
  6  7  1  0  0  0
  8 16  1  0  0  0
  9 16  1  0  0  0
  9 17  1  0  0  0
 10 17  1  0  0  0
 10 11  1  0  0  0
 10 12  1  0  0  0
 11 18  1  0  0  0
 12 28  1  0  0  0
 12 13  1  0  0  0
 13 29  1  0  0  0
 13  9  1  0  0  0
 14 15  1  0  0  0
 15  2  1  0  0  0
 16 14  1  0  0  0
 31 18  1  0  0  0
 31 20  1  0  0  0
 31 21  1  0  0  0
 32 21  1  0  0  0
 32 23  1  0  0  0
 32 24  1  0  0  0
 33 24  1  0  0  0
 33 26  1  0  0  0
 33 27  1  0  0  0
  2  3  2  0  0  0
  4  5  2  0  0  0
  7  8  2  0  0  0
 14 30  2  0  0  0
 15  6  2  0  0  0
 31 19  2  0  0  0
 32 22  2  0  0  0
 33 25  2  0  0  0
M  END
> <rmsd>
0.705125749

$$$$
CHEMBL448320 PubChem-135960736


 52 57  0  0  0  0  0  0  0  0999 V2000
   -4.9362   -8.9051  -19.6271 N   0  0  0  0  0
   -4.6661  -10.2336  -17.6699 N   0  0  0  0  0
   -6.4394   -7.0267  -19.3443 N   0  0  0  0  0
   -6.9820   -7.4526  -17.1806 N   0  0  0  0  0
   -7.3945    1.9819  -14.9444 N   0  0  0  0  0
   -7.4084    3.4390  -13.0789 N   0  0  0  0  0
   -5.8370    5.2559  -12.8742 N   0  0  0  0  0
   -4.8979   -0.3982  -20.5642 N   0  0  0  0  0
   -2.6245    1.1303  -19.5661 N   0  0  0  0  0
   -2.5927    1.8310  -17.4637 N   0  0  0  0  0
   -3.4595  -10.8129  -19.6834 N   0  0  0  0  0
   -4.3692   -9.9724  -18.9855 C   0  0  0  0  0
   -5.5322   -9.4430  -16.9701 C   0  0  0  0  0
   -6.1018   -8.3638  -17.6320 C   0  0  0  0  0
   -5.7907   -8.1217  -18.9243 C   0  0  0  0  0
   -7.1789   -6.6496  -18.2650 C   0  0  0  0  0
   -6.4575   -6.4348  -20.6875 C   0  0  0  0  0
   -4.5133   -5.3996  -21.2721 C   0  0  0  0  0
   -5.3558   -4.3730  -20.5506 C   0  0  0  0  0
   -6.7439   -4.9462  -20.6175 C   0  0  0  0  0
   -8.5137   -3.8455  -21.3475 C   0  0  0  0  0
   -6.0152   -1.2011  -17.8035 C   0  0  0  0  0
   -7.2777   -0.7822  -17.0744 C   0  0  0  0  0
   -8.0872    0.1618  -17.9360 C   0  0  0  0  0
   -8.5515    1.2306  -16.9764 C   0  0  0  0  0
   -7.9366    0.8220  -15.6543 C   0  0  0  0  0
   -7.9253    2.3680  -13.7409 C   0  0  0  0  0
   -6.3631    4.1397  -13.5874 C   0  0  0  0  0
   -5.8055    3.7695  -14.8104 C   0  0  0  0  0
   -6.3460    2.6715  -15.4788 C   0  0  0  0  0
   -3.6343   -0.3035  -21.2757 C   0  0  0  0  0
   -2.9785    1.0358  -20.9761 C   0  0  0  0  0
   -1.7121    0.3895  -18.9164 C   0  0  0  0  0
   -1.6971    0.8286  -17.6057 C   0  0  0  0  0
   -3.1450    1.9953  -18.6804 C   0  0  0  0  0
   -3.1680   -5.5770  -20.5801 C   0  0  0  0  0
   -5.7993   -9.6919  -15.7640 O   0  0  0  0  0
   -5.2090   -6.6259  -21.3225 O   0  0  0  0  0
   -7.3985   -4.5504  -21.7880 O   0  0  0  0  0
   -5.2616   -3.1211  -21.1679 O   0  0  0  0  0
   -3.7291   -2.3670  -19.1691 O   0  0  0  0  0
   -6.3254   -2.0957  -18.8303 O   0  0  0  0  0
   -6.9274   -0.1264  -15.8847 O   0  0  0  0  0
   -8.8937    1.7402  -13.2363 O   0  0  0  0  0
   -9.9435    1.2594  -16.8497 O   0  0  0  0  0
   -9.1556   -0.5274  -18.5165 O   0  0  0  0  0
   -3.3479   -6.0276  -19.2687 O   0  0  0  0  0
   -1.7015   -8.0129  -19.8065 O   0  0  0  0  0
   -0.5987   -5.7916  -18.9579 O   0  0  0  0  0
   -2.0527   -7.4353  -17.2846 O   0  0  0  0  0
   -5.0109   -2.0201  -19.9021 P   0  0  0  0  0
   -1.9186   -6.8490  -18.8648 P   0  0  0  0  0
  2 13  1  0  0  0
  3 16  1  0  0  0
  5 27  1  0  0  0
  9 33  1  0  0  0
 12  2  1  0  0  0
 12 11  1  0  0  0
 13 14  1  0  0  0
 14  4  1  0  0  0
 15  3  1  0  0  0
 15  1  1  0  0  0
 17  3  1  0  0  0
 17 38  1  0  0  0
 18 38  1  0  0  0
 18 19  1  0  0  0
 18 36  1  0  0  0
 19 20  1  0  0  0
 19 40  1  0  0  0
 20 39  1  0  0  0
 20 17  1  0  0  0
 21 39  1  0  0  0
 22 42  1  0  0  0
 23 22  1  0  0  0
 23 24  1  0  0  0
 23 43  1  0  0  0
 24 25  1  0  0  0
 24 46  1  0  0  0
 25 26  1  0  0  0
 25 45  1  0  0  0
 26 43  1  0  0  0
 26  5  1  0  0  0
 27  6  1  0  0  0
 28 29  1  0  0  0
 28  7  1  0  0  0
 30  5  1  0  0  0
 31  8  1  0  0  0
 31 32  1  0  0  0
 32  9  1  0  0  0
 34 10  1  0  0  0
 35  9  1  0  0  0
 36 47  1  0  0  0
 51 40  1  0  0  0
 51 42  1  0  0  0
 51  8  1  0  0  0
 52 47  1  0  0  0
 52 49  1  0  0  0
 52 50  1  0  0  0
 12  1  2  0  0  0
 13 37  2  0  0  0
 14 15  2  0  0  0
 16  4  2  0  0  0
 27 44  2  0  0  0
 28  6  2  0  0  0
 29 30  2  0  0  0
 33 34  2  0  0  0
 35 10  2  0  0  0
 51 41  2  0  0  0
 52 48  2  0  0  0
M  CHG  2  49  -1  50  -1
M  END
> <rmsd>
0.60605675

$$$$
CHEMBL1161857 PubChem-11849527 PubChem-11849528


 63 65  0  0  0  0  0  0  0  0999 V2000
   -5.1856   -6.7887  -19.9744 P   0  0  0  0  0
   -7.5095   -5.3046  -20.0542 P   0  0  0  0  0
   -9.7808   -1.2948  -17.7862 P   0  0  0  0  0
   -4.6214   -8.1602  -19.6792 O   0  0  0  0  0
   -6.8467   -6.8042  -19.5940 O   0  0  0  0  0
   -7.3242   -5.0728  -21.5375 O   0  0  0  0  0
   -6.7910   -4.0356  -19.1906 O   0  0  0  0  0
   -5.3145   -2.9010  -17.1181 O   0  0  0  0  0
   -6.6120   -0.1658  -15.8016 O   0  0  0  0  0
   -8.5724   -1.6404  -16.6461 O   0  0  0  0  0
  -10.0240   -2.5031  -18.6636 O   0  0  0  0  0
  -11.2104   -0.9045  -16.9715 O   0  0  0  0  0
   -9.3179    0.0197  -18.7473 O   0  0  0  0  0
   -9.1706   -5.3311  -19.7289 O   0  0  0  0  0
   -4.9495   -6.4648  -21.6181 O   0  0  0  0  0
   -4.3550   -5.6197  -19.0651 O   0  0  0  0  0
   -1.1514   -5.4246  -19.4851 O   0  0  0  0  0
   -3.0485  -10.0728  -21.1845 O   0  0  0  0  0
   -6.2046  -12.7560  -22.4565 O   0  0  0  0  0
   -7.4534  -15.3826  -19.6671 O   0  0  0  0  0
   -2.1579   -8.1270  -17.4027 O   0  0  0  0  0
   -7.1655   -4.2394  -17.8586 C   0  0  0  0  0
   -6.7004   -3.0813  -16.9889 C   0  0  0  0  0
   -7.3914   -1.8015  -17.3804 C   0  0  0  0  0
   -6.3693   -0.7451  -17.0532 C   0  0  0  0  0
   -5.0649   -1.5188  -16.9919 C   0  0  0  0  0
   -3.7430   -1.7432  -19.1468 C   0  0  0  0  0
   -2.7596    0.1359  -19.2320 C   0  0  0  0  0
   -3.5254    0.1104  -18.1215 C   0  0  0  0  0
   -2.8316    2.2538  -17.5184 C   0  0  0  0  0
   -1.9908    1.2558  -19.5141 C   0  0  0  0  0
   -4.3391   -6.0992  -17.7510 C   0  0  0  0  0
   -2.9834   -5.8642  -17.0747 C   0  0  0  0  0
   -1.8679   -6.7783  -17.6391 C   0  0  0  0  0
   -1.5375   -6.5595  -19.0945 C   0  0  0  0  0
   -1.3755   -7.4543  -21.4446 C   0  0  0  0  0
   -1.2869   -8.7940  -22.1597 C   0  0  0  0  0
   -2.6107   -9.4775  -22.2062 C   0  0  0  0  0
   -4.6735  -10.0961  -23.5325 C   0  0  0  0  0
   -5.7098   -9.2227  -22.8491 C   0  0  0  0  0
   -6.9506  -10.8519  -21.1873 C   0  0  0  0  0
   -6.3570  -12.2211  -21.3228 C   0  0  0  0  0
   -5.3921  -14.2598  -20.1763 C   0  0  0  0  0
   -4.6930  -14.5473  -18.8528 C   0  0  0  0  0
   -3.7489  -15.7327  -18.9794 C   0  0  0  0  0
   -2.4997  -15.3335  -19.7519 C   0  0  0  0  0
   -0.9084  -16.9646  -18.9133 C   0  0  0  0  0
   -6.4642  -15.2735  -20.4447 C   0  0  0  0  0
   -3.1571   -6.1671  -15.5967 C   0  0  0  0  0
   -2.5812   -4.4000  -17.1765 C   0  0  0  0  0
   -4.1596   -1.0645  -18.0459 N   0  0  0  0  0
   -2.8715   -1.0220  -19.9078 N   0  0  0  0  0
   -3.5831    1.1440  -17.2459 N   0  0  0  0  0
   -2.0457    2.3043  -18.6419 N   0  0  0  0  0
   -1.1638    1.3163  -20.6687 N   0  0  0  0  0
   -1.6180   -7.6442  -20.0223 N   0  0  0  0  0
   -3.3563   -9.4820  -23.4239 N   0  0  0  0  0
   -5.9633  -12.9205  -20.1404 N   0  0  0  0  0
   -1.6030  -16.4734  -19.8903 N   0  0  0  0  0
   -0.9715  -16.3978  -17.6081 N   0  0  0  0  0
   -0.0675  -18.0865  -19.1482 N   0  0  0  0  0
   -6.3639  -16.1214  -21.5857 N   0  0  0  0  0
   -7.3153  -10.0736  -22.7961 S   0  0  0  0  0
  1  5  1  0  0  0
  1 15  1  0  0  0
  1 16  1  0  0  0
  2  5  1  0  0  0
  2  7  1  0  0  0
  2 14  1  0  0  0
  3 10  1  0  0  0
  3 12  1  0  0  0
  3 13  1  0  0  0
 22  7  1  0  0  0
 23 22  1  0  0  0
 23 24  1  0  0  0
 23  8  1  0  0  0
 24 25  1  0  0  0
 24 10  1  0  0  0
 25 26  1  0  0  0
 25  9  1  0  0  0
 26  8  1  0  0  0
 26 51  1  0  0  0
 28 52  1  0  0  0
 29 53  1  0  0  0
 29 51  1  0  0  0
 30 54  1  0  0  0
 31 55  1  0  0  0
 31 28  1  0  0  0
 32 16  1  0  0  0
 32 33  1  0  0  0
 33 34  1  0  0  0
 33 49  1  0  0  0
 33 50  1  0  0  0
 34 35  1  0  0  0
 34 21  1  0  0  0
 35 56  1  0  0  0
 36 56  1  0  0  0
 36 37  1  0  0  0
 37 38  1  0  0  0
 38 57  1  0  0  0
 39 57  1  0  0  0
 39 40  1  0  0  0
 40 63  1  0  0  0
 41 63  1  0  0  0
 41 42  1  0  0  0
 42 58  1  0  0  0
 43 58  1  0  0  0
 43 44  1  0  0  0
 43 48  1  0  0  0
 44 45  1  0  0  0
 45 46  1  0  0  0
 46 59  1  0  0  0
 47 60  1  0  0  0
 47 61  1  0  0  0
 48 62  1  0  0  0
 51 27  1  0  0  0
  1  4  2  0  0  0
  2  6  2  0  0  0
  3 11  2  0  0  0
 27 52  2  0  0  0
 28 29  2  0  0  0
 30 53  2  0  0  0
 31 54  2  0  0  0
 35 17  2  0  0  0
 38 18  2  0  0  0
 42 19  2  0  0  0
 47 59  2  0  0  0
 48 20  2  0  0  0
M  END
> <rmsd>
0.562522888

$$$$
CHEMBL3350587 PubChem-53248458 PubChem-53248551


 52 57  0  0  0  0  0  0  0  0999 V2000
   -2.1828   -8.3721  -18.8242 C   0  0  0  0  0
   -2.4444   -6.9075  -19.0436 C   0  0  0  0  0
   -3.9471   -6.8033  -19.0771 C   0  0  0  0  0
   -3.5033   -9.0269  -19.1803 C   0  0  0  0  0
   -3.5322  -11.2504  -20.1439 C   0  0  0  0  0
   -3.4183  -12.1419  -21.2177 C   0  0  0  0  0
   -3.1247  -11.6304  -22.4860 C   0  0  0  0  0
   -2.9472  -10.2583  -22.6638 C   0  0  0  0  0
   -3.0661   -9.4081  -21.5641 C   0  0  0  0  0
   -3.5982  -13.5894  -21.0140 C   0  0  0  0  0
   -4.3440   -5.7487  -20.0952 C   0  0  0  0  0
   -6.1756   -1.5500  -20.0409 C   0  0  0  0  0
   -6.6168   -1.4930  -18.5911 C   0  0  0  0  0
   -7.0773   -0.0903  -18.2495 C   0  0  0  0  0
   -6.4897    0.1643  -16.8789 C   0  0  0  0  0
   -5.8121   -1.1460  -16.5529 C   0  0  0  0  0
   -3.4643   -0.2119  -15.9795 C   0  0  0  0  0
   -3.2385   -1.0050  -14.0245 C   0  0  0  0  0
   -4.4152   -1.4409  -14.5256 C   0  0  0  0  0
   -4.8869   -2.5983  -12.5528 C   0  0  0  0  0
   -2.8538   -1.3660  -12.7406 C   0  0  0  0  0
   -3.1483    0.5589  -17.2046 C   0  0  0  0  0
   -2.2139    1.6030  -17.1337 C   0  0  0  0  0
   -1.8662    2.3262  -18.2777 C   0  0  0  0  0
   -2.4442    2.0084  -19.5167 C   0  0  0  0  0
   -3.3658    0.9600  -19.5936 C   0  0  0  0  0
   -3.7096    0.2394  -18.4469 C   0  0  0  0  0
   -1.1802    3.7776  -20.6960 C   0  0  0  0  0
   -4.4848   -8.0502  -19.4459 O   0  0  0  0  0
   -3.5222  -14.3829  -21.9898 O   0  0  0  0  0
   -5.7358   -5.6655  -20.1918 O   0  0  0  0  0
   -5.7385   -6.9275  -22.4823 O   0  0  0  0  0
   -5.1186   -4.3882  -22.6082 O   0  0  0  0  0
   -7.0178   -2.5698  -22.7084 O   0  0  0  0  0
   -5.8303   -2.8600  -20.3752 O   0  0  0  0  0
   -5.5486   -1.8350  -17.7440 O   0  0  0  0  0
   -2.1197    2.7118  -20.6801 O   0  0  0  0  0
   -7.4728    0.4372  -15.9231 O   0  0  0  0  0
   -8.4740   -0.0446  -18.2438 O   0  0  0  0  0
   -4.5646   -1.6965  -22.5413 O   0  0  0  0  0
   -7.7151   -5.2826  -22.0857 O   0  0  0  0  0
   -1.9229   -6.1174  -18.0167 O   0  0  0  0  0
   -1.8867   -8.6472  -17.4868 O   0  0  0  0  0
   -3.3543   -9.9132  -20.3291 N   0  0  0  0  0
   -3.8553  -14.1090  -19.7108 N   0  0  0  0  0
   -4.5960   -0.9564  -15.7607 N   0  0  0  0  0
   -2.6088   -0.2206  -14.9147 N   0  0  0  0  0
   -5.2601   -2.2308  -13.8176 N   0  0  0  0  0
   -3.6962   -2.1672  -12.0238 N   0  0  0  0  0
   -1.6306   -0.9101  -12.1767 N   0  0  0  0  0
   -6.0656   -5.5903  -21.8557 P   0  0  0  0  0
   -5.6815   -2.8757  -22.0668 P   0  0  0  0  0
  1  2  1  0  0  0
  1 43  1  0  0  0
  2  3  1  0  0  0
  2 42  1  0  0  0
  3 29  1  0  0  0
  3 11  1  0  0  0
  4 29  1  0  0  0
  4 44  1  0  0  0
  4  1  1  0  0  0
  5  6  1  0  0  0
  6 10  1  0  0  0
  7  8  1  0  0  0
  9 44  1  0  0  0
 10 45  1  0  0  0
 11 31  1  0  0  0
 12 35  1  0  0  0
 13 12  1  0  0  0
 13 14  1  0  0  0
 13 36  1  0  0  0
 14 15  1  0  0  0
 14 39  1  0  0  0
 15 16  1  0  0  0
 15 38  1  0  0  0
 16 36  1  0  0  0
 16 46  1  0  0  0
 17 22  1  0  0  0
 18 47  1  0  0  0
 19 48  1  0  0  0
 19 46  1  0  0  0
 20 49  1  0  0  0
 21 50  1  0  0  0
 21 18  1  0  0  0
 23 24  1  0  0  0
 25 26  1  0  0  0
 25 37  1  0  0  0
 27 22  1  0  0  0
 28 37  1  0  0  0
 46 17  1  0  0  0
 51 31  1  0  0  0
 51 33  1  0  0  0
 51 41  1  0  0  0
 52 33  1  0  0  0
 52 35  1  0  0  0
 52 40  1  0  0  0
  6  7  2  0  0  0
  8  9  2  0  0  0
 10 30  2  0  0  0
 17 47  2  0  0  0
 18 19  2  0  0  0
 20 48  2  0  0  0
 21 49  2  0  0  0
 22 23  2  0  0  0
 24 25  2  0  0  0
 26 27  2  0  0  0
 44  5  2  0  0  0
 51 32  2  0  0  0
 52 34  2  0  0  0
M  CHG  2  44   1  41  -1
M  END
> <rmsd>
0.457602471

$$$$
CHEMBL1162203 PubChem-44457439


 59 63  0  0  0  0  0  0  0  0999 V2000
  -12.4043  -16.6190  -16.2916 O   0  0  0  0  0
   -9.3606   -9.9205  -17.3791 O   0  0  0  0  0
   -6.8875   -9.5926  -18.6948 O   0  0  0  0  0
   -4.7807   -9.7618  -17.1611 O   0  0  0  0  0
   -4.4090  -10.2682  -19.6902 O   0  0  0  0  0
   -4.8902   -7.6783  -18.8706 O   0  0  0  0  0
   -4.2898   -7.1478  -16.3467 O   0  0  0  0  0
   -2.3385   -8.0585  -17.8306 O   0  0  0  0  0
   -3.3029   -5.4971  -18.1192 O   0  0  0  0  0
   -4.4428   -3.1947  -18.5068 O   0  0  0  0  0
   -5.9737   -5.0291  -17.4640 O   0  0  0  0  0
   -5.1582   -5.1434  -20.1350 O   0  0  0  0  0
   -6.9410   -4.6798  -21.9853 O   0  0  0  0  0
   -7.7980   -4.4920  -19.5295 O   0  0  0  0  0
   -6.1120   -2.5773  -20.6592 O   0  0  0  0  0
   -6.2349    0.0850  -19.9739 O   0  0  0  0  0
   -0.4640    1.1187  -18.2091 O   0  0  0  0  0
   -4.6569    2.7017  -17.5281 O   0  0  0  0  0
   -6.8338    0.1584  -16.5221 O   0  0  0  0  0
   -8.7509   -0.8696  -17.8893 O   0  0  0  0  0
   -7.6171   -8.8735  -14.6478 O   0  0  0  0  0
   -8.4708  -11.2804  -14.2576 O   0  0  0  0  0
   -8.4080  -12.2267  -18.5545 O   0  0  0  0  0
  -12.0643  -16.8525  -17.4887 C   0  0  0  0  0
  -13.5595  -18.8784  -17.6872 C   0  0  0  0  0
  -13.5525  -20.2573  -17.9234 C   0  0  0  0  0
  -14.6489  -21.0443  -17.5371 C   0  0  0  0  0
  -15.7611  -20.4424  -16.9356 C   0  0  0  0  0
  -15.7772  -19.0610  -16.7104 C   0  0  0  0  0
  -14.6822  -18.2837  -17.0863 C   0  0  0  0  0
  -10.8328  -14.6299  -17.7485 C   0  0  0  0  0
  -11.4590  -14.0156  -16.6610 C   0  0  0  0  0
  -11.0043  -12.7708  -16.2444 C   0  0  0  0  0
   -9.5341  -10.8641  -16.3534 C   0  0  0  0  0
   -8.3956   -9.0110  -16.8967 C   0  0  0  0  0
   -7.5018   -8.5210  -18.0328 C   0  0  0  0  0
   -7.3238   -1.8968  -20.7963 C   0  0  0  0  0
   -7.3803   -0.7215  -19.8275 C   0  0  0  0  0
   -5.8830    0.5099  -18.6772 C   0  0  0  0  0
   -3.6027   -0.3025  -19.0239 C   0  0  0  0  0
   -2.2211   -0.1770  -18.9154 C   0  0  0  0  0
   -1.7075    0.9723  -18.3221 C   0  0  0  0  0
   -3.9045    1.8008  -17.9878 C   0  0  0  0  0
   -6.3786   -0.5077  -17.6708 C   0  0  0  0  0
   -7.4935   -1.2159  -18.3956 C   0  0  0  0  0
   -7.5677   -9.6647  -15.8007 C   0  0  0  0  0
   -8.2306  -11.0026  -15.6025 C   0  0  0  0  0
   -9.3769  -12.7695  -17.9583 C   0  0  0  0  0
  -12.4473  -18.0792  -18.1108 N   0  0  0  0  0
  -11.2444  -15.9213  -18.2184 N   0  0  0  0  0
   -9.9771  -12.1569  -16.8874 N   0  0  0  0  0
   -4.4317    0.6789  -18.5669 N   0  0  0  0  0
   -2.5537    1.9341  -17.8709 N   0  0  0  0  0
   -9.8151  -13.9848  -18.3788 N   0  0  0  0  0
  -16.8112  -21.2072  -16.5431 F   0  0  0  0  0
   -5.2183   -9.3246  -18.5430 P   0  0  0  0  0
   -3.7334   -7.1031  -17.7536 P   0  0  0  0  0
   -4.7268   -4.6758  -18.5544 P   0  0  0  0  0
   -6.5148   -4.2272  -20.6044 P   0  0  0  0  0
 24 49  1  0  0  0
 24 50  1  0  0  0
 26 27  1  0  0  0
 28 55  1  0  0  0
 28 29  1  0  0  0
 30 25  1  0  0  0
 31 32  1  0  0  0
 33 51  1  0  0  0
 34 51  1  0  0  0
 34  2  1  0  0  0
 35  2  1  0  0  0
 35 36  1  0  0  0
 35 46  1  0  0  0
 36  3  1  0  0  0
 37 15  1  0  0  0
 38 37  1  0  0  0
 38 16  1  0  0  0
 39 16  1  0  0  0
 39 52  1  0  0  0
 39 44  1  0  0  0
 41 42  1  0  0  0
 42 53  1  0  0  0
 43 52  1  0  0  0
 44 19  1  0  0  0
 44 45  1  0  0  0
 45 20  1  0  0  0
 45 38  1  0  0  0
 46 21  1  0  0  0
 46 47  1  0  0  0
 47 22  1  0  0  0
 47 34  1  0  0  0
 48 54  1  0  0  0
 49 25  1  0  0  0
 50 31  1  0  0  0
 51 48  1  0  0  0
 52 40  1  0  0  0
 53 43  1  0  0  0
 56  3  1  0  0  0
 56  5  1  0  0  0
 56  6  1  0  0  0
 57  6  1  0  0  0
 57  8  1  0  0  0
 57  9  1  0  0  0
 58  9  1  0  0  0
 58 11  1  0  0  0
 58 12  1  0  0  0
 59 12  1  0  0  0
 59 14  1  0  0  0
 59 15  1  0  0  0
 24  1  2  0  0  0
 25 26  2  0  0  0
 27 28  2  0  0  0
 29 30  2  0  0  0
 31 54  2  0  0  0
 32 33  2  0  0  0
 40 41  2  0  0  0
 42 17  2  0  0  0
 43 18  2  0  0  0
 48 23  2  0  0  0
 56  4  2  0  0  0
 57  7  2  0  0  0
 58 10  2  0  0  0
 59 13  2  0  0  0
M  END
> <rmsd>
0.750571311

$$$$
CHEMBL4525343 CHEMBL4597064 PubChem-155543044 PubChem-155543045


 37 41  0  0  0  0  0  0  0  0999 V2000
   -8.3828    0.3459  -16.9572 C   0  0  0  0  0
   -9.3320    1.4428  -17.4650 C   0  0  0  0  0
   -9.4005    2.6493  -16.5163 C   0  0  0  0  0
   -9.1910    2.2807  -15.0426 C   0  0  0  0  0
   -9.6446    0.8537  -14.7606 C   0  0  0  0  0
   -8.8179   -0.1550  -15.5679 C   0  0  0  0  0
   -7.2293   -0.6983  -18.5646 C   0  0  0  0  0
   -6.4677   -1.9895  -18.3683 C   0  0  0  0  0
   -5.1692   -0.4405  -17.4296 C   0  0  0  0  0
   -2.9133    0.0027  -18.5002 C   0  0  0  0  0
   -2.3509    1.8218  -17.5613 C   0  0  0  0  0
   -3.5616    1.4585  -17.0876 C   0  0  0  0  0
   -3.6477    3.3307  -15.6991 C   0  0  0  0  0
   -1.7475    2.9831  -17.0998 C   0  0  0  0  0
   -6.3708    0.3316  -17.9358 C   0  0  0  0  0
   -6.5582   -2.8358  -19.6240 C   0  0  0  0  0
   -8.4236   -0.7421  -17.8476 O   0  0  0  0  0
   -5.1283   -1.6788  -18.0908 O   0  0  0  0  0
   -7.0763    0.8622  -16.8582 O   0  0  0  0  0
   -5.9320   -4.0646  -19.4073 O   0  0  0  0  0
   -7.3101   -5.1794  -21.3550 O   0  0  0  0  0
   -8.5239   -4.9647  -19.0569 O   0  0  0  0  0
   -6.5087   -6.7960  -19.4271 O   0  0  0  0  0
   -5.1543   -6.9810  -21.6797 O   0  0  0  0  0
   -4.4464   -8.5941  -19.7775 O   0  0  0  0  0
   -3.8598   -5.8735  -19.6936 O   0  0  0  0  0
   -2.6904   -4.9751  -17.5382 O   0  0  0  0  0
   -2.6298   -7.5599  -17.8546 O   0  0  0  0  0
   -4.9395   -6.2229  -17.1318 O   0  0  0  0  0
   -3.9418    0.3152  -17.6678 N   0  0  0  0  0
   -1.9076    0.9230  -18.4597 N   0  0  0  0  0
   -4.2339    2.1840  -16.1604 N   0  0  0  0  0
   -2.4177    3.7220  -16.1666 N   0  0  0  0  0
   -0.4717    3.3975  -17.5758 N   0  0  0  0  0
   -7.0628   -5.2455  -19.8633 P   0  0  0  0  0
   -4.9982   -7.0446  -20.1768 P   0  0  0  0  0
   -3.5177   -6.1326  -18.0465 P   0  0  0  0  0
  1  2  1  0  0  0
  1 17  1  0  0  0
  1 19  1  0  0  0
  2  3  1  0  0  0
  3  4  1  0  0  0
  4  5  1  0  0  0
  5  6  1  0  0  0
  6  1  1  0  0  0
  7 17  1  0  0  0
  7  8  1  0  0  0
  8 18  1  0  0  0
  8 16  1  0  0  0
  9 18  1  0  0  0
  9 30  1  0  0  0
  9 15  1  0  0  0
 11 31  1  0  0  0
 12 32  1  0  0  0
 12 30  1  0  0  0
 13 33  1  0  0  0
 14 34  1  0  0  0
 14 11  1  0  0  0
 15 19  1  0  0  0
 15  7  1  0  0  0
 16 20  1  0  0  0
 30 10  1  0  0  0
 35 20  1  0  0  0
 35 22  1  0  0  0
 35 23  1  0  0  0
 36 23  1  0  0  0
 36 25  1  0  0  0
 36 26  1  0  0  0
 37 26  1  0  0  0
 37 28  1  0  0  0
 37 29  1  0  0  0
 10 31  2  0  0  0
 11 12  2  0  0  0
 13 32  2  0  0  0
 14 33  2  0  0  0
 35 21  2  0  0  0
 36 24  2  0  0  0
 37 27  2  0  0  0
M  END
> <rmsd>
0.75816977

$$$$
CHEMBL4129153 PubChem-145962638


 67 70  0  0  0  0  0  0  0  0999 V2000
   -4.1778   -4.3231  -21.1331 C   0  0  0  0  0
   -5.6155   -3.8825  -20.9211 C   0  0  0  0  0
   -5.7156   -2.9421  -19.7120 C   0  0  0  0  0
   -7.1459   -2.4337  -19.5131 C   0  0  0  0  0
   -7.3603   -1.8795  -18.0845 C   0  0  0  0  0
   -7.0918    0.3165  -17.6938 C   0  0  0  0  0
   -5.9307    1.1483  -15.9430 C   0  0  0  0  0
   -5.6055    0.9600  -14.4772 C   0  0  0  0  0
   -6.2799    2.6095  -16.2034 C   0  0  0  0  0
   -6.5941    2.7846  -17.7008 C   0  0  0  0  0
   -8.1895    4.5223  -17.1672 C   0  0  0  0  0
   -6.0221    5.0841  -17.8889 C   0  0  0  0  0
   -7.5334    1.6894  -18.2183 C   0  0  0  0  0
   -8.1299   -2.8640  -17.1672 C   0  0  0  0  0
   -7.3014   -4.1453  -16.9218 C   0  0  0  0  0
   -5.8896   -3.9502  -16.3458 C   0  0  0  0  0
   -5.1394   -5.2579  -16.2333 C   0  0  0  0  0
   -5.7819   -6.5774  -16.5947 C   0  0  0  0  0
   -5.9475   -7.4462  -15.3632 C   0  0  0  0  0
   -5.0620   -7.3656  -17.7070 C   0  0  0  0  0
   -6.0215   -8.0058  -18.7430 C   0  0  0  0  0
   -6.6711   -9.2344  -18.1209 C   0  0  0  0  0
   -7.0767   -7.0126  -19.2925 C   0  0  0  0  0
   -6.4639   -5.0985  -20.7373 C   0  0  0  0  0
   -8.3022   -6.8415  -18.4021 C   0  0  0  0  0
   -9.4155   -7.7557  -18.8678 C   0  0  0  0  0
   -2.7124   -6.9622  -18.3087 C   0  0  0  0  0
   -0.4080   -6.7804  -19.3221 C   0  0  0  0  0
   -0.3765   -7.7903  -20.4607 C   0  0  0  0  0
   -1.4745   -9.9917  -21.0661 C   0  0  0  0  0
   -2.5028  -11.0030  -20.7603 C   0  0  0  0  0
   -2.7952  -12.0220  -21.6773 C   0  0  0  0  0
   -3.7985  -12.9565  -21.4005 C   0  0  0  0  0
   -4.5256  -12.8838  -20.2032 C   0  0  0  0  0
   -4.2303  -11.8670  -19.2850 C   0  0  0  0  0
   -3.2260  -10.9344  -19.5614 C   0  0  0  0  0
   -5.9351   -3.2859  -14.9785 C   0  0  0  0  0
   -9.1832   -3.0148  -15.0958 C   0  0  0  0  0
   -9.4317   -3.2637  -17.8763 C   0  0  0  0  0
   -7.5665   -1.4800  -20.6303 C   0  0  0  0  0
   -3.7410   -1.6589  -18.9827 C   0  0  0  0  0
   -2.6586   -0.6976  -19.3416 C   0  0  0  0  0
   -2.8545    0.6207  -18.6764 C   0  0  0  0  0
   -3.3887    1.6969  -19.3909 C   0  0  0  0  0
   -3.1480    3.1157  -17.5038 C   0  0  0  0  0
   -2.6129    2.0651  -16.7537 C   0  0  0  0  0
   -2.4653    0.8107  -17.3473 C   0  0  0  0  0
   -8.0269   -0.6423  -18.1025 O   0  0  0  0  0
   -7.0260    0.3379  -16.2865 O   0  0  0  0  0
   -7.5212    1.6875  -19.6139 O   0  0  0  0  0
   -3.9856   -5.2480  -15.8271 O   0  0  0  0  0
   -5.2670   -8.4537  -19.8280 O   0  0  0  0  0
   -6.4743   -5.7434  -19.5016 O   0  0  0  0  0
   -7.1677   -5.5201  -21.6955 O   0  0  0  0  0
   -4.0560   -6.5906  -18.3600 O   0  0  0  0  0
   -2.3380   -7.9036  -17.5570 O   0  0  0  0  0
   -0.8258  -10.0516  -22.1461 O   0  0  0  0  0
   -5.8085  -14.7588  -20.7234 O   0  0  0  0  0
   -6.3118  -13.7264  -18.7698 O   0  0  0  0  0
   -8.4172   -2.1931  -15.9475 O   0  0  0  0  0
   -4.8093   -1.8514  -19.8606 O   0  0  0  0  0
   -3.6668   -2.3060  -17.9041 O   0  0  0  0  0
   -7.0990    4.1209  -18.0490 N   0  0  0  0  0
   -1.7625   -6.2753  -19.1263 N   0  0  0  0  0
   -1.2370   -8.9226  -20.1490 N   0  0  0  0  0
   -5.5635  -13.8331  -19.9215 N   0  0  0  0  0
   -3.5227    2.9118  -18.7952 N   0  0  0  0  0
  2  1  1  0  0  0
  2  3  1  0  0  0
  2 24  1  0  0  0
  3  4  1  0  0  0
  3 61  1  0  0  0
  4  5  1  0  0  0
  4 40  1  0  0  0
  5 48  1  0  0  0
  5 14  1  0  0  0
  6 48  1  0  0  0
  6 49  1  0  0  0
  7 49  1  0  0  0
  7  8  1  0  0  0
  7  9  1  0  0  0
  9 10  1  0  0  0
 10 63  1  0  0  0
 10 13  1  0  0  0
 11 63  1  0  0  0
 12 63  1  0  0  0
 13 50  1  0  0  0
 13  6  1  0  0  0
 14 15  1  0  0  0
 14 60  1  0  0  0
 14 39  1  0  0  0
 15 16  1  0  0  0
 16 17  1  0  0  0
 16 37  1  0  0  0
 18 17  1  0  0  0
 18 19  1  0  0  0
 18 20  1  0  0  0
 20 21  1  0  0  0
 20 55  1  0  0  0
 21 22  1  0  0  0
 21 52  1  0  0  0
 21 23  1  0  0  0
 23 53  1  0  0  0
 23 25  1  0  0  0
 24 53  1  0  0  0
 25 26  1  0  0  0
 27 55  1  0  0  0
 27 64  1  0  0  0
 28 64  1  0  0  0
 28 29  1  0  0  0
 29 65  1  0  0  0
 30 31  1  0  0  0
 32 33  1  0  0  0
 34 35  1  0  0  0
 34 66  1  0  0  0
 36 31  1  0  0  0
 38 60  1  0  0  0
 41 61  1  0  0  0
 42 41  1  0  0  0
 42 43  1  0  0  0
 44 67  1  0  0  0
 45 46  1  0  0  0
 47 43  1  0  0  0
 65 30  1  0  0  0
 66 59  1  0  0  0
 17 51  2  0  0  0
 24 54  2  0  0  0
 27 56  2  0  0  0
 30 57  2  0  0  0
 31 32  2  0  0  0
 33 34  2  0  0  0
 35 36  2  0  0  0
 41 62  2  0  0  0
 43 44  2  0  0  0
 45 67  2  0  0  0
 46 47  2  0  0  0
 66 58  2  0  0  0
M  CHG  2  66   1  59  -1
M  END
> <rmsd>
0.720321476

$$$$
CHEMBL360647 PubChem-44395781


 55 61  0  0  0  0  0  0  0  0999 V2000
   -4.2199   -2.3593  -16.2973 C   0  0  0  0  0
   -6.1749   -1.6153  -16.8750 C   0  0  0  0  0
   -6.0421   -2.8890  -17.4422 C   0  0  0  0  0
   -4.7867   -3.3451  -17.0614 C   0  0  0  0  0
   -4.1023   -4.5403  -17.3037 C   0  0  0  0  0
   -2.8086   -4.6642  -16.7402 C   0  0  0  0  0
   -2.9404   -2.5386  -15.7540 C   0  0  0  0  0
   -2.0746   -5.8321  -16.9545 C   0  0  0  0  0
   -2.6093   -6.8839  -17.7184 C   0  0  0  0  0
   -3.8955   -6.7620  -18.2698 C   0  0  0  0  0
   -4.6357   -5.5890  -18.0564 C   0  0  0  0  0
   -5.7066   -7.7685  -19.6248 C   0  0  0  0  0
   -0.5749   -8.2637  -17.4208 C   0  0  0  0  0
   -7.0302   -3.6048  -18.2639 C   0  0  0  0  0
   -6.7451   -3.9051  -19.5997 C   0  0  0  0  0
   -7.6778   -4.5911  -20.3934 C   0  0  0  0  0
   -8.9100   -4.9733  -19.8405 C   0  0  0  0  0
   -9.1944   -4.6642  -18.4999 C   0  0  0  0  0
   -8.2600   -3.9838  -17.7167 C   0  0  0  0  0
  -11.0940   -6.0967  -20.1553 C   0  0  0  0  0
   -6.1688   -4.5729  -22.3554 C   0  0  0  0  0
   -7.3339   -0.7091  -17.0445 C   0  0  0  0  0
  -10.1717   -0.6780  -19.3399 C   0  0  0  0  0
  -11.5889   -0.1286  -19.3009 C   0  0  0  0  0
  -12.3115   -0.5961  -18.0789 C   0  0  0  0  0
  -12.7934    0.2120  -17.0558 C   0  0  0  0  0
  -13.2864   -1.8148  -16.5357 C   0  0  0  0  0
  -12.6354   -1.8857  -17.7365 C   0  0  0  0  0
  -12.4034   -3.0971  -18.3857 C   0  0  0  0  0
  -12.8663   -4.2669  -17.7573 C   0  0  0  0  0
  -13.5377   -4.1979  -16.5174 C   0  0  0  0  0
  -13.7555   -2.9573  -15.8904 C   0  0  0  0  0
   -4.7199   -0.0122  -15.5677 C   0  0  0  0  0
   -4.4601    1.0471  -16.6382 C   0  0  0  0  0
   -3.3072    0.6790  -17.5120 C   0  0  0  0  0
   -2.0025    0.6880  -17.0098 C   0  0  0  0  0
   -0.9218    0.3149  -17.8256 C   0  0  0  0  0
   -1.1569   -0.0623  -19.1572 C   0  0  0  0  0
   -2.4697   -0.0584  -19.6578 C   0  0  0  0  0
   -3.5382    0.3112  -18.8389 C   0  0  0  0  0
   -0.2273   -0.8323  -21.3188 C   0  0  0  0  0
    0.7085    0.6607  -15.9952 C   0  0  0  0  0
   -5.0489   -1.2997  -16.1796 N   0  0  0  0  0
   -8.2610   -0.9188  -18.1087 N   0  0  0  0  0
   -9.3818   -0.0960  -18.2688 N   0  0  0  0  0
  -13.3945   -0.5452  -16.1029 N   0  0  0  0  0
   -2.2887   -3.6772  -16.0015 O   0  0  0  0  0
   -2.4068   -1.6575  -15.0306 O   0  0  0  0  0
   -4.4178   -7.8163  -19.0270 O   0  0  0  0  0
   -1.8813   -8.0579  -17.9409 O   0  0  0  0  0
   -9.8320   -5.6588  -20.6389 O   0  0  0  0  0
   -7.3999   -4.9053  -21.7280 O   0  0  0  0  0
   -7.5069    0.2531  -16.2493 O   0  0  0  0  0
   -0.0755   -0.4356  -19.9628 O   0  0  0  0  0
    0.3880    0.3084  -17.3342 O   0  0  0  0  0
  1 43  1  0  0  0
  2 22  1  0  0  0
  3  4  1  0  0  0
  3 14  1  0  0  0
  4  5  1  0  0  0
  6 47  1  0  0  0
  6  8  1  0  0  0
  7 47  1  0  0  0
  7  1  1  0  0  0
  9 10  1  0  0  0
  9 50  1  0  0  0
 10 49  1  0  0  0
 11  5  1  0  0  0
 12 49  1  0  0  0
 13 50  1  0  0  0
 15 16  1  0  0  0
 16 52  1  0  0  0
 17 18  1  0  0  0
 17 51  1  0  0  0
 19 14  1  0  0  0
 20 51  1  0  0  0
 21 52  1  0  0  0
 22 44  1  0  0  0
 23 45  1  0  0  0
 23 24  1  0  0  0
 24 25  1  0  0  0
 26 46  1  0  0  0
 28 29  1  0  0  0
 28 25  1  0  0  0
 30 31  1  0  0  0
 32 27  1  0  0  0
 33 43  1  0  0  0
 33 34  1  0  0  0
 34 35  1  0  0  0
 36 37  1  0  0  0
 37 55  1  0  0  0
 38 39  1  0  0  0
 38 54  1  0  0  0
 40 35  1  0  0  0
 41 54  1  0  0  0
 42 55  1  0  0  0
 43  2  1  0  0  0
 44 45  1  0  0  0
 46 27  1  0  0  0
  2  3  2  0  0  0
  4  1  2  0  0  0
  5  6  2  0  0  0
  7 48  2  0  0  0
  8  9  2  0  0  0
 10 11  2  0  0  0
 14 15  2  0  0  0
 16 17  2  0  0  0
 18 19  2  0  0  0
 22 53  2  0  0  0
 25 26  2  0  0  0
 27 28  2  0  0  0
 29 30  2  0  0  0
 31 32  2  0  0  0
 35 36  2  0  0  0
 37 38  2  0  0  0
 39 40  2  0  0  0
M  END
> <rmsd>
0.588846624

$$$$
CHEMBL2042754 PubChem-70690281


 42 44  0  0  0  0  0  0  0  0999 V2000
   -9.1315   -0.8185  -18.6010 O   0  0  0  0  0
   -7.8939   -2.3546  -20.0460 O   0  0  0  0  0
   -7.0362   -2.0036  -17.6022 O   0  0  0  0  0
   -6.2578    0.3203  -16.3126 O   0  0  0  0  0
   -3.5169   -1.5445  -18.6956 O   0  0  0  0  0
   -4.4545   -7.7920  -19.0862 O   0  0  0  0  0
   -4.5191   -8.6485  -16.6011 O   0  0  0  0  0
   -3.8069  -10.2213  -18.3406 O   0  0  0  0  0
   -2.1542   -8.3432  -17.6415 O   0  0  0  0  0
   -5.6260   -6.3487  -21.1328 O   0  0  0  0  0
   -6.7655   -6.5953  -23.4815 O   0  0  0  0  0
   -5.4615   -4.5636  -23.0584 O   0  0  0  0  0
   -7.7848   -4.7961  -21.9116 O   0  0  0  0  0
   -0.6453    2.3138  -18.8302 O   0  0  0  0  0
   -0.1362    4.1264  -16.9941 O   0  0  0  0  0
    1.1136    4.2408  -19.1000 O   0  0  0  0  0
   -1.3794    4.9710  -19.1169 O   0  0  0  0  0
   -4.9213    2.5823  -16.5053 O   0  0  0  0  0
   -5.9100    4.6966  -15.3091 O   0  0  0  0  0
   -3.4838    4.3620  -15.2072 O   0  0  0  0  0
   -4.5219    5.1553  -17.4562 O   0  0  0  0  0
   -6.8802   -0.0116  -19.5881 O   0  0  0  0  0
   -7.7623   -1.3081  -18.9770 S   0  0  0  0  0
   -3.7549   -8.7902  -17.8869 S   0  0  0  0  0
   -6.3944   -5.5708  -22.4476 S   0  0  0  0  0
   -0.2205    3.9337  -18.4820 S   0  0  0  0  0
   -4.7054    4.2228  -16.0711 S   0  0  0  0  0
   -5.6675   -1.6591  -17.5108 C   0  0  0  0  0
   -5.4396   -0.2272  -17.0999 C   0  0  0  0  0
   -4.2353    0.4977  -17.5737 C   0  0  0  0  0
   -3.9855    1.8498  -17.2461 C   0  0  0  0  0
   -2.7905    2.4485  -17.6703 C   0  0  0  0  0
   -1.8436    1.7305  -18.4090 C   0  0  0  0  0
   -2.1003    0.4002  -18.7375 C   0  0  0  0  0
   -3.2892   -0.2133  -18.3382 C   0  0  0  0  0
   -4.8246   -2.1137  -18.7160 C   0  0  0  0  0
   -4.7309   -3.6035  -18.7886 C   0  0  0  0  0
   -5.2273   -4.2697  -19.9115 C   0  0  0  0  0
   -5.1362   -5.6670  -20.0130 C   0  0  0  0  0
   -4.5389   -6.3994  -18.9755 C   0  0  0  0  0
   -4.0377   -5.7256  -17.8506 C   0  0  0  0  0
   -4.1307   -4.3362  -17.7580 C   0  0  0  0  0
 23  3  1  0  0  0
 23 22  1  0  0  0
 24  6  1  0  0  0
 24  9  1  0  0  0
 25 10  1  0  0  0
 25 13  1  0  0  0
 26 14  1  0  0  0
 26 17  1  0  0  0
 27 18  1  0  0  0
 27 21  1  0  0  0
 28  3  1  0  0  0
 28 29  1  0  0  0
 29 30  1  0  0  0
 31 32  1  0  0  0
 31 18  1  0  0  0
 33 34  1  0  0  0
 33 14  1  0  0  0
 35  5  1  0  0  0
 35 30  1  0  0  0
 36  5  1  0  0  0
 36 37  1  0  0  0
 36 28  1  0  0  0
 38 39  1  0  0  0
 39 10  1  0  0  0
 40 41  1  0  0  0
 40  6  1  0  0  0
 42 37  1  0  0  0
 23  1  2  0  0  0
 23  2  2  0  0  0
 24  7  2  0  0  0
 24  8  2  0  0  0
 25 11  2  0  0  0
 25 12  2  0  0  0
 26 15  2  0  0  0
 26 16  2  0  0  0
 27 19  2  0  0  0
 27 20  2  0  0  0
 29  4  2  0  0  0
 30 31  2  0  0  0
 32 33  2  0  0  0
 34 35  2  0  0  0
 37 38  2  0  0  0
 39 40  2  0  0  0
 41 42  2  0  0  0
M  END
> <rmsd>
0.657591283

$$$$
CHEMBL2021696 PubChem-135862909


 44 47  0  0  0  0  0  0  0  0999 V2000
   -8.4649    0.5885  -20.2016 O   0  0  0  0  0
   -9.3094   -0.1873  -18.0487 O   0  0  0  0  0
   -1.5645    2.5270  -21.2518 O   0  0  0  0  0
    0.4597    2.6875  -19.3924 O   0  0  0  0  0
   -7.0282   -0.6951  -16.1819 O   0  0  0  0  0
   -8.4624   -2.9833  -17.5690 O   0  0  0  0  0
   -7.8039   -4.5076  -21.8625 O   0  0  0  0  0
   -6.9276   -7.7069  -22.3748 O   0  0  0  0  0
   -4.9067   -8.4360  -18.9388 O   0  0  0  0  0
   -2.3122   -8.0074  -16.4994 O   0  0  0  0  0
   -2.7525   -6.8498  -18.4221 O   0  0  0  0  0
   -8.2114   -0.3567  -19.0614 S   0  0  0  0  0
   -2.4031   -9.2270  -24.1882 S   0  0  0  0  0
   -6.6774    0.0095  -18.3472 N   0  0  0  0  0
   -5.6549    0.5319  -19.0060 N   0  0  0  0  0
   -2.3263    1.2458  -17.5182 N   0  0  0  0  0
   -5.0211    0.1840  -16.8889 N   0  0  0  0  0
   -8.2010   -1.9802  -19.6627 N   0  0  0  0  0
   -8.2198   -4.4295  -19.3703 N   0  0  0  0  0
   -6.7592   -6.9931  -20.1670 N   0  0  0  0  0
   -4.3058   -8.5949  -20.1707 N   0  0  0  0  0
   -4.5937   -8.0816  -23.7628 N   0  0  0  0  0
   -3.9781   -8.0823  -26.1211 N   0  0  0  0  0
   -4.6448    0.6383  -18.1094 C   0  0  0  0  0
   -3.3134    1.1764  -18.4547 C   0  0  0  0  0
   -3.0574    1.6203  -19.7586 C   0  0  0  0  0
   -1.7975    2.1275  -20.0806 C   0  0  0  0  0
   -0.8029    2.1871  -19.0983 C   0  0  0  0  0
   -1.0913    1.7359  -17.8091 C   0  0  0  0  0
   -6.2930   -0.2012  -17.0788 C   0  0  0  0  0
   -4.2547    0.1084  -15.6543 C   0  0  0  0  0
   -8.3024   -3.1219  -18.8106 C   0  0  0  0  0
   -8.2994   -5.7794  -18.8597 C   0  0  0  0  0
   -8.0745   -6.3699  -20.1451 C   0  0  0  0  0
   -7.9938   -4.9898  -20.7157 C   0  0  0  0  0
   -6.2340   -7.6543  -21.3222 C   0  0  0  0  0
   -4.8776   -8.2650  -21.2931 C   0  0  0  0  0
   -4.2278   -8.7671  -17.7305 C   0  0  0  0  0
   -3.0445   -7.8629  -17.5149 C   0  0  0  0  0
   -3.7744  -10.2182  -17.7764 C   0  0  0  0  0
   -5.1986   -8.6004  -16.5765 C   0  0  0  0  0
   -4.1357   -8.5096  -22.5521 C   0  0  0  0  0
   -3.7454   -8.4062  -24.7556 C   0  0  0  0  0
   -2.9059   -9.1791  -22.5792 C   0  0  0  0  0
 12 14  1  0  0  0
 12 18  1  0  0  0
 14 15  1  0  0  0
 16 25  1  0  0  0
 17 30  1  0  0  0
 18 32  1  0  0  0
 20 36  1  0  0  0
 21  9  1  0  0  0
 24 25  1  0  0  0
 24 17  1  0  0  0
 26 27  1  0  0  0
 27 28  1  0  0  0
 28  4  1  0  0  0
 29 16  1  0  0  0
 30 14  1  0  0  0
 31 17  1  0  0  0
 32 19  1  0  0  0
 33 19  1  0  0  0
 33 34  1  0  0  0
 34 35  1  0  0  0
 34 20  1  0  0  0
 35 19  1  0  0  0
 36 37  1  0  0  0
 37 42  1  0  0  0
 38  9  1  0  0  0
 38 39  1  0  0  0
 38 40  1  0  0  0
 38 41  1  0  0  0
 39 11  1  0  0  0
 42 22  1  0  0  0
 43 13  1  0  0  0
 43 23  1  0  0  0
 44 13  1  0  0  0
 12  1  2  0  0  0
 12  2  2  0  0  0
 24 15  2  0  0  0
 25 26  2  0  0  0
 27  3  2  0  0  0
 28 29  2  0  0  0
 30  5  2  0  0  0
 32  6  2  0  0  0
 35  7  2  0  0  0
 36  8  2  0  0  0
 37 21  2  0  0  0
 39 10  2  0  0  0
 43 22  2  0  0  0
 44 42  2  0  0  0
M  END
> <rmsd>
0.807783365

$$$$
CHEMBL337395 PubChem-11542191


 46 50  0  0  0  0  0  0  0  0999 V2000
   -9.5151    0.8680  -15.1067 C   0  0  0  0  0
   -9.1192    0.2950  -16.2503 C   0  0  0  0  0
   -7.9259   -0.6767  -16.2378 C   0  0  0  0  0
   -7.8506   -1.4109  -14.8915 C   0  0  0  0  0
   -8.2808   -0.7991  -13.7794 C   0  0  0  0  0
   -8.7988    0.6056  -13.8184 C   0  0  0  0  0
   -7.1061   -1.3056  -18.2307 C   0  0  0  0  0
   -6.2285   -2.5064  -18.5152 C   0  0  0  0  0
   -4.9142   -1.0814  -17.4150 C   0  0  0  0  0
   -6.1974   -0.3114  -17.6242 C   0  0  0  0  0
   -3.3739    0.4359  -18.7341 C   0  0  0  0  0
   -1.9117    0.9140  -17.2694 C   0  0  0  0  0
   -2.8247    0.0976  -16.7020 C   0  0  0  0  0
   -1.6970    0.1480  -14.6622 C   0  0  0  0  0
   -0.8351    1.3704  -16.5228 C   0  0  0  0  0
   -6.4533   -2.9757  -19.9413 C   0  0  0  0  0
   -9.6767    0.8738  -12.6891 N   0  0  0  0  0
   -7.3197   -2.7452  -14.7756 N   0  0  0  0  0
   -3.7571   -0.2177  -17.6049 N   0  0  0  0  0
   -2.2263    1.1526  -18.5573 N   0  0  0  0  0
   -2.7533   -0.2979  -15.4076 N   0  0  0  0  0
   -0.7472    0.9669  -15.2193 N   0  0  0  0  0
    0.1632    2.2090  -17.0939 N   0  0  0  0  0
   -9.8022    0.6607  -17.4644 N   0  0  0  0  0
   -9.7510    2.0379  -12.2461 O   0  0  0  0  0
  -10.6313   -0.0398  -12.3186 O   0  0  0  0  0
   -6.6653   -3.2621  -15.7018 O   0  0  0  0  0
   -7.4267   -3.4290  -13.5858 O   0  0  0  0  0
   -8.0732   -1.6237  -17.2752 O   0  0  0  0  0
   -4.8839   -2.1424  -18.3314 O   0  0  0  0  0
   -6.7372    0.0636  -16.3967 O   0  0  0  0  0
   -5.7152   -4.1372  -20.1823 O   0  0  0  0  0
   -7.6919   -5.1725  -21.5527 O   0  0  0  0  0
   -7.8735   -5.3999  -18.9599 O   0  0  0  0  0
   -6.0574   -6.8885  -20.4617 O   0  0  0  0  0
   -6.0760   -7.2657  -17.8528 O   0  0  0  0  0
   -4.0808   -5.8425  -18.7968 O   0  0  0  0  0
   -4.2730   -8.5888  -19.2311 O   0  0  0  0  0
   -3.9259   -8.6234  -16.6032 O   0  0  0  0  0
   -2.0029   -7.5268  -18.0094 O   0  0  0  0  0
   -2.4375  -10.2395  -18.0051 O   0  0  0  0  0
   -9.2957    0.4409  -18.5820 O   0  0  0  0  0
  -10.9921    1.3507  -17.4043 O   0  0  0  0  0
   -6.8534   -5.3910  -20.3143 P   0  0  0  0  0
   -5.1464   -7.1369  -19.0409 P   0  0  0  0  0
   -3.1922   -8.7287  -17.9229 P   0  0  0  0  0
  2 24  1  0  0  0
  3  2  1  0  0  0
  3  4  1  0  0  0
  3 29  1  0  0  0
  3 31  1  0  0  0
  4 18  1  0  0  0
  6  5  1  0  0  0
  6 17  1  0  0  0
  6  1  1  0  0  0
  7 29  1  0  0  0
  7  8  1  0  0  0
  8 30  1  0  0  0
  8 16  1  0  0  0
  9 30  1  0  0  0
  9 10  1  0  0  0
  9 19  1  0  0  0
 10 31  1  0  0  0
 10  7  1  0  0  0
 12 20  1  0  0  0
 13 21  1  0  0  0
 13 19  1  0  0  0
 14 22  1  0  0  0
 15 23  1  0  0  0
 15 12  1  0  0  0
 16 32  1  0  0  0
 17 26  1  0  0  0
 18 28  1  0  0  0
 19 11  1  0  0  0
 24 43  1  0  0  0
 44 32  1  0  0  0
 44 34  1  0  0  0
 44 35  1  0  0  0
 45 35  1  0  0  0
 45 37  1  0  0  0
 45 38  1  0  0  0
 46 38  1  0  0  0
 46 40  1  0  0  0
 46 41  1  0  0  0
  1  2  2  0  0  0
  4  5  2  0  0  0
 11 20  2  0  0  0
 12 13  2  0  0  0
 14 21  2  0  0  0
 15 22  2  0  0  0
 17 25  2  0  0  0
 18 27  2  0  0  0
 24 42  2  0  0  0
 44 33  2  0  0  0
 45 36  2  0  0  0
 46 39  2  0  0  0
M  CHG  6  17   1  26  -1  18   1  28  -1  24   1  43  -1
M  END
> <rmsd>
0.743306339

$$$$
CHEMBL607600 PubChem-46876655


 51 56  0  0  0  0  0  0  0  0999 V2000
   -7.1277   -7.0821  -18.7423 N   0  0  0  0  0
   -7.5507   -9.1821  -19.5312 N   0  0  0  0  0
   -7.1964   -7.6563  -16.3908 N   0  0  0  0  0
   -7.6245   -9.9557  -15.9609 N   0  0  0  0  0
   -7.9637  -11.5486  -17.7558 N   0  0  0  0  0
   -7.2226   -7.4267  -21.1942 N   0  0  0  0  0
   -7.1724   -6.2317  -21.4879 N   0  0  0  0  0
   -7.1270   -5.0380  -21.7835 N   0  0  0  0  0
   -1.2584   -1.0854  -18.9452 N   0  0  0  0  0
   -0.1947    0.2997  -20.4161 N   0  0  0  0  0
   -2.9043    0.5147  -18.1898 N   0  0  0  0  0
   -2.7136    2.6563  -19.2064 N   0  0  0  0  0
   -1.0011    3.1453  -20.8511 N   0  0  0  0  0
    0.5992   -2.0178  -20.2507 N   0  0  0  0  0
    1.4836   -1.8571  -21.0917 N   0  0  0  0  0
    2.3685   -1.7007  -21.9323 N   0  0  0  0  0
   -7.2978   -7.8795  -19.8358 C   0  0  0  0  0
   -7.5405   -9.1736  -18.1861 C   0  0  0  0  0
   -7.2912   -7.9296  -17.7165 C   0  0  0  0  0
   -7.3700   -8.6863  -15.5078 C   0  0  0  0  0
   -7.7129  -10.2259  -17.2976 C   0  0  0  0  0
   -6.7611   -5.6647  -18.6929 C   0  0  0  0  0
   -5.2713   -5.4333  -18.4861 C   0  0  0  0  0
   -5.2885   -4.0616  -17.8688 C   0  0  0  0  0
   -6.6403   -3.9808  -17.1893 C   0  0  0  0  0
   -7.2474   -2.6080  -17.4245 C   0  0  0  0  0
   -1.7514   -5.5874  -18.0770 C   0  0  0  0  0
   -0.9408   -4.3987  -18.5616 C   0  0  0  0  0
   -1.6585   -2.2645  -18.1744 C   0  0  0  0  0
   -0.2641   -0.9449  -19.8649 C   0  0  0  0  0
   -1.2032    0.9434  -19.7954 C   0  0  0  0  0
   -1.8385    0.1190  -18.9291 C   0  0  0  0  0
   -3.3416    1.8023  -18.3351 C   0  0  0  0  0
   -1.6416    2.2497  -19.9501 C   0  0  0  0  0
   -0.7067   -2.5942  -17.0350 C   0  0  0  0  0
   -0.0600   -3.8888  -17.4419 C   0  0  0  0  0
   -7.4889   -4.9868  -17.6992 O   0  0  0  0  0
   -8.5260   -2.5460  -16.8624 O   0  0  0  0  0
  -10.2448   -0.7216  -16.1224 O   0  0  0  0  0
   -8.7191   -0.0954  -18.1502 O   0  0  0  0  0
   -7.7407   -0.2261  -15.5670 O   0  0  0  0  0
   -4.2618   -3.8896  -16.9361 O   0  0  0  0  0
   -4.7330   -6.3737  -17.5902 O   0  0  0  0  0
   -4.2027   -8.0309  -19.5648 O   0  0  0  0  0
   -2.4315   -6.1619  -19.1517 O   0  0  0  0  0
   -1.8035   -3.3804  -19.0225 O   0  0  0  0  0
    1.2348   -3.6865  -17.9284 O   0  0  0  0  0
    0.2271   -1.5794  -16.7889 O   0  0  0  0  0
   -2.7575   -8.2972  -17.4124 O   0  0  0  0  0
   -8.8438   -0.8942  -16.6625 P   0  0  0  0  0
   -3.5503   -7.2293  -18.4612 P   0  0  0  0  0
  1 17  1  0  0  0
  9 30  1  0  0  0
 17  6  1  0  0  0
 18  2  1  0  0  0
 19  3  1  0  0  0
 19  1  1  0  0  0
 20  4  1  0  0  0
 21  5  1  0  0  0
 21 18  1  0  0  0
 22  1  1  0  0  0
 22 23  1  0  0  0
 22 37  1  0  0  0
 23 24  1  0  0  0
 23 43  1  0  0  0
 24 25  1  0  0  0
 24 42  1  0  0  0
 25 37  1  0  0  0
 25 26  1  0  0  0
 26 38  1  0  0  0
 27 45  1  0  0  0
 28 27  1  0  0  0
 28 46  1  0  0  0
 29 46  1  0  0  0
 29  9  1  0  0  0
 29 35  1  0  0  0
 30 14  1  0  0  0
 31 10  1  0  0  0
 32 11  1  0  0  0
 32  9  1  0  0  0
 33 12  1  0  0  0
 34 13  1  0  0  0
 34 31  1  0  0  0
 35 36  1  0  0  0
 35 48  1  0  0  0
 36 47  1  0  0  0
 36 28  1  0  0  0
 50 38  1  0  0  0
 50 40  1  0  0  0
 50 41  1  0  0  0
 51 43  1  0  0  0
 51 45  1  0  0  0
 51 49  1  0  0  0
  6  7  2  0  0  0
  7  8  2  0  0  0
 14 15  2  0  0  0
 15 16  2  0  0  0
 17  2  2  0  0  0
 18 19  2  0  0  0
 20  3  2  0  0  0
 21  4  2  0  0  0
 30 10  2  0  0  0
 31 32  2  0  0  0
 33 11  2  0  0  0
 34 12  2  0  0  0
 50 39  2  0  0  0
 51 44  2  0  0  0
M  CHG  4   7   1   8  -1  15   1  16  -1
M  END
> <rmsd>
0.70676744

$$$$
CHEMBL1159792 PubChem-6331304


 41 43  0  0  0  0  0  0  0  0999 V2000
   -4.3158   -9.0347  -16.9530 O   0  0  0  0  0
   -2.6112   -7.4560  -17.7326 O   0  0  0  0  0
   -5.0803   -6.5962  -17.5251 O   0  0  0  0  0
   -2.9233   -1.1462  -18.6169 O   0  0  0  0  0
   -0.2085    2.6732  -19.7515 O   0  0  0  0  0
    1.0828    4.3578  -18.1978 O   0  0  0  0  0
   -0.7431    5.2433  -19.5788 O   0  0  0  0  0
    1.4878    4.6137  -20.7507 O   0  0  0  0  0
   -3.1294    2.8372  -15.8399 O   0  0  0  0  0
   -3.4073    4.8423  -14.1723 O   0  0  0  0  0
   -3.0440    5.3710  -16.5384 O   0  0  0  0  0
   -1.0240    4.5018  -15.1486 O   0  0  0  0  0
   -5.6744   -0.4790  -17.9798 O   0  0  0  0  0
   -7.4523   -0.2024  -16.0767 O   0  0  0  0  0
   -7.3674   -2.3500  -17.2706 O   0  0  0  0  0
   -8.3547   -0.2961  -18.5055 O   0  0  0  0  0
   -6.2261   -6.4293  -20.0816 O   0  0  0  0  0
   -5.8946   -6.1263  -22.6731 O   0  0  0  0  0
   -8.0306   -5.4076  -21.6995 O   0  0  0  0  0
   -7.5868   -7.9555  -21.9404 O   0  0  0  0  0
   -4.2852   -8.4132  -19.4731 O   0  0  0  0  0
   -4.0384   -7.8971  -17.8939 S   0  0  0  0  0
    0.3919    4.2596  -19.5286 S   0  0  0  0  0
   -2.6803    4.4335  -15.4216 S   0  0  0  0  0
   -7.2159   -0.8604  -17.4079 S   0  0  0  0  0
   -6.9375   -6.4368  -21.6367 S   0  0  0  0  0
   -5.0288   -5.4044  -18.2438 C   0  0  0  0  0
   -4.4262   -4.2844  -17.6621 C   0  0  0  0  0
   -4.3510   -3.0767  -18.3611 C   0  0  0  0  0
   -3.7308   -1.8857  -17.7006 C   0  0  0  0  0
   -4.7719   -0.9799  -17.0317 C   0  0  0  0  0
   -4.0583    0.1838  -16.3372 C   0  0  0  0  0
   -3.0385    0.8505  -17.2256 C   0  0  0  0  0
   -2.6083    2.1577  -16.9478 C   0  0  0  0  0
   -1.6646    2.7630  -17.7903 C   0  0  0  0  0
   -1.1463    2.0819  -18.8999 C   0  0  0  0  0
   -1.5736    0.7794  -19.1649 C   0  0  0  0  0
   -2.5078    0.1583  -18.3331 C   0  0  0  0  0
   -4.9005   -2.9853  -19.6461 C   0  0  0  0  0
   -5.5150   -4.0967  -20.2257 C   0  0  0  0  0
   -5.5897   -5.3126  -19.5288 C   0  0  0  0  0
 22  3  1  0  0  0
 22 21  1  0  0  0
 23  5  1  0  0  0
 23  8  1  0  0  0
 24  9  1  0  0  0
 24 12  1  0  0  0
 25 13  1  0  0  0
 25 16  1  0  0  0
 26 17  1  0  0  0
 26 20  1  0  0  0
 27  3  1  0  0  0
 28 29  1  0  0  0
 30 29  1  0  0  0
 30 31  1  0  0  0
 30  4  1  0  0  0
 31 32  1  0  0  0
 31 13  1  0  0  0
 32 33  1  0  0  0
 34 35  1  0  0  0
 34  9  1  0  0  0
 36 37  1  0  0  0
 36  5  1  0  0  0
 38  4  1  0  0  0
 38 33  1  0  0  0
 39 40  1  0  0  0
 41 17  1  0  0  0
 41 27  1  0  0  0
 22  1  2  0  0  0
 22  2  2  0  0  0
 23  6  2  0  0  0
 23  7  2  0  0  0
 24 10  2  0  0  0
 24 11  2  0  0  0
 25 14  2  0  0  0
 25 15  2  0  0  0
 26 18  2  0  0  0
 26 19  2  0  0  0
 27 28  2  0  0  0
 29 39  2  0  0  0
 33 34  2  0  0  0
 35 36  2  0  0  0
 37 38  2  0  0  0
 40 41  2  0  0  0
M  END
> <rmsd>
0.561288476

$$$$
CHEMBL414948 PubChem-449135


 67 75  0  0  0  0  0  0  0  0999 V2000
   -3.8013   -9.0553  -14.6385 O   0  0  0  0  0
   -1.6158  -10.1387  -15.5716 O   0  0  0  0  0
   -3.8628  -11.0174  -16.5847 O   0  0  0  0  0
   -2.8558   -8.5083  -17.1993 O   0  0  0  0  0
   -4.2415   -7.5923  -19.6637 O   0  0  0  0  0
   -5.1210   -4.6198  -20.2153 O   0  0  0  0  0
   -7.1114   -4.8849  -21.9678 O   0  0  0  0  0
   -5.3096   -3.0797  -22.4750 O   0  0  0  0  0
   -7.1737   -2.6989  -20.5035 O   0  0  0  0  0
   -5.7772   -2.1252  -18.1399 O   0  0  0  0  0
   -7.0953    0.3764  -16.4442 O   0  0  0  0  0
   -5.1774    2.1221  -16.0268 O   0  0  0  0  0
   -7.4959    2.6780  -15.0013 O   0  0  0  0  0
   -7.0795    2.9127  -17.7056 O   0  0  0  0  0
   -6.4714    4.8960  -19.6585 O   0  0  0  0  0
   -4.1706    7.1594  -18.3709 O   0  0  0  0  0
   -3.5535    4.7420  -17.7518 O   0  0  0  0  0
   -9.0349   -0.9898  -17.4847 O   0  0  0  0  0
   -4.9117   -4.8171  -17.6219 O   0  0  0  0  0
   -2.9971   -9.6884  -15.9880 P   0  0  0  0  0
   -6.2175   -3.8688  -21.2851 P   0  0  0  0  0
   -6.6605    2.0186  -16.3147 P   0  0  0  0  0
   -4.1241   -7.9321  -17.2971 C   0  0  0  0  0
   -4.1391   -6.9241  -18.4279 C   0  0  0  0  0
   -5.2921   -6.9906  -20.3866 C   0  0  0  0  0
   -5.7679   -5.7407  -19.6713 C   0  0  0  0  0
   -7.5633   -3.2523  -19.2804 C   0  0  0  0  0
   -7.1691   -2.3271  -18.1369 C   0  0  0  0  0
   -5.5426   -0.7647  -17.8606 C   0  0  0  0  0
   -4.9579   -0.1080  -20.2324 C   0  0  0  0  0
   -3.1574    0.9766  -19.9306 C   0  0  0  0  0
   -3.5636    0.4942  -18.7367 C   0  0  0  0  0
   -1.8225    1.5882  -17.6362 C   0  0  0  0  0
   -2.0437    1.8036  -20.0011 C   0  0  0  0  0
   -6.8555   -0.0040  -17.7723 C   0  0  0  0  0
   -6.0101    2.7818  -18.6019 C   0  0  0  0  0
   -5.4717    4.1380  -19.0332 C   0  0  0  0  0
   -6.0408    6.2238  -19.5186 C   0  0  0  0  0
   -7.7316    7.9173  -18.6470 C   0  0  0  0  0
   -8.8044    8.3703  -20.4236 C   0  0  0  0  0
   -7.8684    7.4420  -20.7175 C   0  0  0  0  0
   -8.4800    7.4515  -22.9682 C   0  0  0  0  0
   -9.6200    8.8739  -21.4286 C   0  0  0  0  0
   -5.3006    6.3535  -18.1979 C   0  0  0  0  0
   -4.9352    4.9260  -17.8575 C   0  0  0  0  0
   -7.8728   -0.9975  -18.2609 C   0  0  0  0  0
   -5.3122   -5.9924  -18.2617 C   0  0  0  0  0
   -7.1174   -8.5440  -19.5666 C   0  0  0  0  0
   -7.8714   -9.3041  -21.3994 C   0  0  0  0  0
   -8.5213   -9.9676  -22.4280 C   0  0  0  0  0
   -7.1136   -8.8124  -23.9681 C   0  0  0  0  0
   -6.8826   -8.4305  -21.6821 C   0  0  0  0  0
   -4.7002   -0.1868  -18.8999 N   0  0  0  0  0
   -4.0137    0.6108  -20.9030 N   0  0  0  0  0
   -2.9299    0.7854  -17.5761 N   0  0  0  0  0
   -1.3907    2.0935  -18.8378 N   0  0  0  0  0
   -1.6160    2.3750  -21.2333 N   0  0  0  0  0
   -7.1765    7.1388  -19.6148 N   0  0  0  0  0
   -8.7496    8.6950  -19.1189 N   0  0  0  0  0
   -7.6783    6.9655  -21.9718 N   0  0  0  0  0
   -9.4371    8.3979  -22.6947 N   0  0  0  0  0
  -10.5964    9.8773  -21.1656 N   0  0  0  0  0
   -6.3912   -7.9366  -20.5431 N   0  0  0  0  0
   -8.0500   -9.4015  -20.0684 N   0  0  0  0  0
   -9.5635  -10.9014  -22.1678 N   0  0  0  0  0
   -8.1216   -9.7060  -23.7065 N   0  0  0  0  0
   -6.4798   -8.1627  -22.9468 N   0  0  0  0  0
 20  1  1  0  0  0
 20  3  1  0  0  0
 20  4  1  0  0  0
 21  6  1  0  0  0
 21  8  1  0  0  0
 21  9  1  0  0  0
 22 11  1  0  0  0
 22 13  1  0  0  0
 22 14  1  0  0  0
 23  4  1  0  0  0
 24 23  1  0  0  0
 24  5  1  0  0  0
 25  5  1  0  0  0
 25 26  1  0  0  0
 25 63  1  0  0  0
 26  6  1  0  0  0
 26 47  1  0  0  0
 27  9  1  0  0  0
 28 27  1  0  0  0
 28 10  1  0  0  0
 29 10  1  0  0  0
 29 53  1  0  0  0
 29 35  1  0  0  0
 31 54  1  0  0  0
 32 55  1  0  0  0
 32 53  1  0  0  0
 33 56  1  0  0  0
 34 57  1  0  0  0
 34 31  1  0  0  0
 35 11  1  0  0  0
 35 46  1  0  0  0
 36 14  1  0  0  0
 37 36  1  0  0  0
 37 15  1  0  0  0
 38 15  1  0  0  0
 38 58  1  0  0  0
 38 44  1  0  0  0
 40 59  1  0  0  0
 41 60  1  0  0  0
 41 58  1  0  0  0
 42 61  1  0  0  0
 43 62  1  0  0  0
 43 40  1  0  0  0
 44 16  1  0  0  0
 44 45  1  0  0  0
 45 17  1  0  0  0
 45 37  1  0  0  0
 46 18  1  0  0  0
 46 28  1  0  0  0
 47 19  1  0  0  0
 47 24  1  0  0  0
 49 64  1  0  0  0
 50 65  1  0  0  0
 50 66  1  0  0  0
 51 67  1  0  0  0
 52 63  1  0  0  0
 52 49  1  0  0  0
 53 30  1  0  0  0
 58 39  1  0  0  0
 63 48  1  0  0  0
 20  2  2  0  0  0
 21  7  2  0  0  0
 22 12  2  0  0  0
 30 54  2  0  0  0
 31 32  2  0  0  0
 33 55  2  0  0  0
 34 56  2  0  0  0
 39 59  2  0  0  0
 40 41  2  0  0  0
 42 60  2  0  0  0
 43 61  2  0  0  0
 48 64  2  0  0  0
 49 50  2  0  0  0
 51 66  2  0  0  0
 52 67  2  0  0  0
M  END
> <rmsd>
0.74654901

$$$$
CHEMBL1161682


 86 96  0  0  0  0  0  0  0  0999 V2000
   -4.7512    9.4843  -20.3546 N   0  0  0  0  0
   -4.0778    1.6679  -20.2522 N   0  0  0  0  0
   -3.0762   -0.3432  -20.5295 N   0  0  0  0  0
   -1.2130    0.7483  -17.5839 N   0  0  0  0  0
   -2.8092    2.3558  -18.3103 N   0  0  0  0  0
   -0.9163   -1.3670  -18.7301 N   0  0  0  0  0
   -6.6157   -3.7498  -19.1972 N   0  0  0  0  0
   -8.0176   -5.5043  -18.8739 N   0  0  0  0  0
   -7.6221   -5.8275  -22.4912 N   0  0  0  0  0
   -6.3927   -4.0008  -21.5858 N   0  0  0  0  0
   -8.9769   -7.2700  -21.0925 N   0  0  0  0  0
   -3.8197   15.4623  -15.9189 N   0  0  0  0  0
   -3.2233   15.4043  -13.7339 N   0  0  0  0  0
   -2.1048   18.7992  -14.4834 N   0  0  0  0  0
   -3.0734   17.7164  -16.3687 N   0  0  0  0  0
   -1.9058   17.6962  -12.3304 N   0  0  0  0  0
   -6.5397    9.7940  -21.7082 N   0  0  0  0  0
   -4.3107   12.2538  -23.2340 N   0  0  0  0  0
   -3.3069   11.1123  -21.4018 N   0  0  0  0  0
   -6.5915   11.7936  -23.9322 N   0  0  0  0  0
   -3.8703    8.9643  -19.3145 C   0  0  0  0  0
   -4.5719    8.9157  -17.9798 C   0  0  0  0  0
   -3.8161    7.8333  -17.2602 C   0  0  0  0  0
   -3.2720    6.9913  -18.4059 C   0  0  0  0  0
   -3.9525    5.6294  -18.4554 C   0  0  0  0  0
   -6.0962    2.8856  -19.4920 C   0  0  0  0  0
   -4.9406    2.8210  -20.4943 C   0  0  0  0  0
   -3.1615    1.4925  -19.2945 C   0  0  0  0  0
   -2.5682    0.2915  -19.4573 C   0  0  0  0  0
   -4.0047    0.5377  -20.9997 C   0  0  0  0  0
   -1.5636   -0.1084  -18.5887 C   0  0  0  0  0
   -1.8262    1.9681  -17.4423 C   0  0  0  0  0
   -6.9608    1.6277  -19.5851 C   0  0  0  0  0
   -7.9540    1.5517  -18.4327 C   0  0  0  0  0
   -5.7387   -2.1846  -17.4985 C   0  0  0  0  0
   -5.7496   -2.5896  -18.9626 C   0  0  0  0  0
   -6.8668   -4.3438  -20.3672 C   0  0  0  0  0
   -7.7028   -5.3861  -20.1759 C   0  0  0  0  0
   -7.3293   -4.4786  -18.2966 C   0  0  0  0  0
   -8.1018   -6.1597  -21.2558 C   0  0  0  0  0
   -6.7795   -4.7575  -22.6582 C   0  0  0  0  0
   -3.6653   -3.1104  -18.2168 C   0  0  0  0  0
   -4.4862   -2.8364  -16.9767 C   0  0  0  0  0
   -3.1265   -4.5348  -18.2109 C   0  0  0  0  0
   -6.7978   12.6280  -17.5528 C   0  0  0  0  0
   -5.9489   13.7658  -18.1075 C   0  0  0  0  0
   -4.3524   15.0788  -17.2201 C   0  0  0  0  0
   -3.2693   16.6305  -15.5810 C   0  0  0  0  0
   -2.9107   16.5956  -14.2774 C   0  0  0  0  0
   -3.7858   14.7265  -14.7753 C   0  0  0  0  0
   -2.3073   17.6998  -13.6968 C   0  0  0  0  0
   -2.4829   18.8134  -15.8038 C   0  0  0  0  0
   -3.6113   13.8886  -17.7745 C   0  0  0  0  0
   -4.6366   13.2441  -18.6652 C   0  0  0  0  0
   -4.4684   10.4304  -21.2519 C   0  0  0  0  0
   -5.5353   10.6198  -22.0557 C   0  0  0  0  0
   -6.0182    9.0974  -20.6572 C   0  0  0  0  0
   -5.4780   11.5607  -23.0748 C   0  0  0  0  0
   -3.2335   12.0324  -22.4104 C   0  0  0  0  0
   -3.4497    7.6632  -19.6343 O   0  0  0  0  0
   -5.3242    5.7767  -18.6777 O   0  0  0  0  0
   -7.5633    4.7513  -17.7982 O   0  0  0  0  0
   -5.5963    3.0464  -18.1938 O   0  0  0  0  0
   -8.3181    0.2248  -18.1990 O   0  0  0  0  0
   -7.6805   -0.3298  -15.5617 O   0  0  0  0  0
   -5.6665   -0.7914  -17.4027 O   0  0  0  0  0
   -4.4358   -2.8853  -19.3747 O   0  0  0  0  0
   -3.7828   -2.0016  -16.1027 O   0  0  0  0  0
   -4.1768   -5.4546  -18.3165 O   0  0  0  0  0
   -2.8110   -6.6491  -20.2283 O   0  0  0  0  0
   -4.6831   -8.0536  -19.0724 O   0  0  0  0  0
   -2.3280   -7.4479  -17.7773 O   0  0  0  0  0
   -7.6498    1.6063  -20.7985 O   0  0  0  0  0
   -5.6041    4.8297  -16.0891 O   0  0  0  0  0
   -2.7425    8.3676  -16.5393 O   0  0  0  0  0
   -4.5002   10.1535  -17.3285 O   0  0  0  0  0
   -6.1852    9.6887  -15.3783 O   0  0  0  0  0
   -6.2296   12.0917  -16.3923 O   0  0  0  0  0
   -5.7083   14.7341  -17.1095 O   0  0  0  0  0
   -4.5070   13.6810  -19.9859 O   0  0  0  0  0
   -2.4821   14.2990  -18.4840 O   0  0  0  0  0
   -7.2529    9.8758  -17.7535 O   0  0  0  0  0
   -6.0630    4.6037  -17.7002 P   0  0  0  0  0
   -7.2396   -0.3083  -17.0055 P   0  0  0  0  0
   -3.4739   -6.8869  -18.8890 P   0  0  0  0  0
   -6.0512   10.4291  -16.6892 P   0  0  0  0  0
  1 55  1  0  0  0
  2 28  1  0  0  0
  7 37  1  0  0  0
 12 48  1  0  0  0
 21  1  1  0  0  0
 21 22  1  0  0  0
 21 60  1  0  0  0
 22 23  1  0  0  0
 22 76  1  0  0  0
 23 24  1  0  0  0
 23 75  1  0  0  0
 24 60  1  0  0  0
 24 25  1  0  0  0
 25 61  1  0  0  0
 26 63  1  0  0  0
 26 27  1  0  0  0
 26 33  1  0  0  0
 27  2  1  0  0  0
 28  5  1  0  0  0
 29  3  1  0  0  0
 29 31  1  0  0  0
 30  2  1  0  0  0
 31  6  1  0  0  0
 32  4  1  0  0  0
 33 34  1  0  0  0
 33 73  1  0  0  0
 34 64  1  0  0  0
 35 66  1  0  0  0
 35 36  1  0  0  0
 36  7  1  0  0  0
 36 67  1  0  0  0
 37 10  1  0  0  0
 38  8  1  0  0  0
 38 40  1  0  0  0
 39  7  1  0  0  0
 40 11  1  0  0  0
 41  9  1  0  0  0
 42 67  1  0  0  0
 42 43  1  0  0  0
 42 44  1  0  0  0
 43 68  1  0  0  0
 43 35  1  0  0  0
 44 69  1  0  0  0
 45 78  1  0  0  0
 46 45  1  0  0  0
 46 79  1  0  0  0
 47 79  1  0  0  0
 47 12  1  0  0  0
 47 53  1  0  0  0
 48 15  1  0  0  0
 49 13  1  0  0  0
 49 51  1  0  0  0
 50 12  1  0  0  0
 51 16  1  0  0  0
 52 14  1  0  0  0
 53 54  1  0  0  0
 53 81  1  0  0  0
 54 80  1  0  0  0
 54 46  1  0  0  0
 55 19  1  0  0  0
 56 17  1  0  0  0
 56 58  1  0  0  0
 57  1  1  0  0  0
 58 20  1  0  0  0
 59 18  1  0  0  0
 83 61  1  0  0  0
 83 63  1  0  0  0
 83 74  1  0  0  0
 84 64  1  0  0  0
 84 66  1  0  0  0
 85 69  1  0  0  0
 85 71  1  0  0  0
 85 72  1  0  0  0
 86 76  1  0  0  0
 86 78  1  0  0  0
 86 82  1  0  0  0
 28 29  2  0  0  0
 30  3  2  0  0  0
 31  4  2  0  0  0
 32  5  2  0  0  0
 37 38  2  0  0  0
 39  8  2  0  0  0
 40  9  2  0  0  0
 41 10  2  0  0  0
 48 49  2  0  0  0
 50 13  2  0  0  0
 51 14  2  0  0  0
 52 15  2  0  0  0
 55 56  2  0  0  0
 57 17  2  0  0  0
 58 18  2  0  0  0
 59 19  2  0  0  0
 83 62  2  0  0  0
 84 65  2  0  0  0
 85 70  2  0  0  0
 86 77  2  0  0  0
M  END
> <rmsd>
0.748223186

$$$$
CHEMBL4083682 PubChem-137647735


 57 61  0  0  0  0  0  0  0  0999 V2000
   -4.6012   -1.5052  -17.9821 N   0  0  0  0  0
   -1.7461    1.6049  -18.8244 N   0  0  0  0  0
   -4.3379    2.3232  -16.5504 N   0  0  0  0  0
   -3.4886    4.4216  -17.2812 N   0  0  0  0  0
   -1.6661    4.5809  -18.8702 N   0  0  0  0  0
   -3.8798  -10.1593  -21.3102 N   0  0  0  0  0
   -2.4218  -12.0865  -21.3317 N   0  0  0  0  0
   -2.2862  -13.1705  -23.4447 N   0  0  0  0  0
   -4.5015  -10.2630  -23.4847 N   0  0  0  0  0
   -0.9990  -14.0207  -21.5819 N   0  0  0  0  0
   -3.8937   -0.7623  -16.9532 C   0  0  0  0  0
   -3.1842    0.3926  -17.5693 C   0  0  0  0  0
   -2.1376    0.3458  -18.4881 C   0  0  0  0  0
   -2.5497    2.4198  -18.1160 C   0  0  0  0  0
   -3.4248    1.7209  -17.3517 C   0  0  0  0  0
   -4.3650    3.6910  -16.5199 C   0  0  0  0  0
   -2.5708    3.8094  -18.0876 C   0  0  0  0  0
   -5.6010   -2.3270  -17.3148 C   0  0  0  0  0
   -5.6677   -3.6970  -17.9751 C   0  0  0  0  0
   -5.2388   -6.7731  -18.6062 C   0  0  0  0  0
   -4.3669   -8.0202  -18.6069 C   0  0  0  0  0
   -2.9373   -7.6779  -18.9638 C   0  0  0  0  0
   -2.4847   -8.8602  -19.7922 C   0  0  0  0  0
   -3.7328   -9.7088  -19.9302 C   0  0  0  0  0
   -3.2875  -11.2062  -21.8912 C   0  0  0  0  0
   -1.9185  -13.0810  -22.1248 C   0  0  0  0  0
   -3.1550  -12.2744  -24.0000 C   0  0  0  0  0
   -3.6585  -11.2694  -23.1869 C   0  0  0  0  0
   -4.6165   -9.5934  -22.3024 C   0  0  0  0  0
   -0.3862   -9.5315  -20.0088 C   0  0  0  0  0
    0.3895   -6.8314  -16.4447 C   0  0  0  0  0
    0.3654   -7.3812  -15.0312 C   0  0  0  0  0
   -0.9434   -8.1012  -14.7736 C   0  0  0  0  0
   -6.9684   -1.6570  -17.3753 C   0  0  0  0  0
   -9.4692    1.1869  -19.2296 C   0  0  0  0  0
  -10.2626    0.5098  -20.3329 C   0  0  0  0  0
  -11.6253    0.0946  -19.8197 C   0  0  0  0  0
   -5.9286   -3.5719  -19.3443 O   0  0  0  0  0
   -7.1267   -4.9127  -21.2273 O   0  0  0  0  0
   -5.3213   -6.2321  -19.8922 O   0  0  0  0  0
   -3.4788  -12.3594  -25.2138 O   0  0  0  0  0
   -4.8510   -8.9540  -19.5356 O   0  0  0  0  0
   -1.4849   -9.6009  -19.1523 O   0  0  0  0  0
   -2.1781   -7.5286  -17.7964 O   0  0  0  0  0
   -0.5160   -5.9996  -19.1609 O   0  0  0  0  0
   -0.4705   -5.7337  -16.5499 O   0  0  0  0  0
   -0.9357   -8.6315  -13.4859 O   0  0  0  0  0
   -2.5681   -4.7983  -18.0710 O   0  0  0  0  0
   -7.8080   -5.5542  -18.7988 O   0  0  0  0  0
   -6.9570   -0.4582  -16.6583 O   0  0  0  0  0
   -7.6410    2.0374  -17.0178 O   0  0  0  0  0
   -9.1042    0.2460  -18.2608 O   0  0  0  0  0
  -12.3371   -0.5332  -20.8395 O   0  0  0  0  0
   -6.5082    0.8527  -19.0529 O   0  0  0  0  0
   -6.5574   -5.0693  -19.8367 P   0  0  0  0  0
   -1.4053   -6.0201  -17.9362 P   0  0  0  0  0
   -7.5585    0.7088  -17.7325 P   0  0  0  0  0
  2 14  1  0  0  0
  6 25  1  0  0  0
  8 27  1  0  0  0
 11  1  1  0  0  0
 11 12  1  0  0  0
 13  2  1  0  0  0
 15  3  1  0  0  0
 15 12  1  0  0  0
 16  4  1  0  0  0
 17  5  1  0  0  0
 17 14  1  0  0  0
 18  1  1  0  0  0
 18 19  1  0  0  0
 18 34  1  0  0  0
 19 38  1  0  0  0
 20 40  1  0  0  0
 21 20  1  0  0  0
 21 22  1  0  0  0
 21 42  1  0  0  0
 22 23  1  0  0  0
 22 44  1  0  0  0
 23 24  1  0  0  0
 23 43  1  0  0  0
 24  6  1  0  0  0
 24 42  1  0  0  0
 25  7  1  0  0  0
 26  8  1  0  0  0
 26 10  1  0  0  0
 27 28  1  0  0  0
 28  9  1  0  0  0
 29  6  1  0  0  0
 30 43  1  0  0  0
 31 46  1  0  0  0
 31 32  1  0  0  0
 32 33  1  0  0  0
 33 47  1  0  0  0
 34 50  1  0  0  0
 35 52  1  0  0  0
 35 36  1  0  0  0
 36 37  1  0  0  0
 37 53  1  0  0  0
 55 38  1  0  0  0
 55 40  1  0  0  0
 55 49  1  0  0  0
 56 44  1  0  0  0
 56 46  1  0  0  0
 56 48  1  0  0  0
 57 50  1  0  0  0
 57 52  1  0  0  0
 57 54  1  0  0  0
 12 13  2  0  0  0
 14 15  2  0  0  0
 16  3  2  0  0  0
 17  4  2  0  0  0
 26  7  2  0  0  0
 27 41  2  0  0  0
 28 25  2  0  0  0
 29  9  2  0  0  0
 55 39  2  0  0  0
 56 45  2  0  0  0
 57 51  2  0  0  0
M  END
> <rmsd>
0.747303307

$$$$
CHEMBL3350635


 57 62  0  0  0  0  0  0  0  0999 V2000
   -6.9054  -10.0528  -17.7021 O   0  0  0  0  0
   -6.1525   -9.9864  -20.2149 O   0  0  0  0  0
   -2.6303   -8.0761  -17.5124 O   0  0  0  0  0
   -5.0614   -7.9732  -16.5416 O   0  0  0  0  0
   -4.5448   -7.5802  -19.2661 O   0  0  0  0  0
   -5.2849   -5.5270  -17.7488 O   0  0  0  0  0
   -2.8513   -5.4599  -18.6905 O   0  0  0  0  0
   -5.0124   -5.0534  -20.3322 O   0  0  0  0  0
   -7.1440   -4.8076  -21.8322 O   0  0  0  0  0
   -6.9822   -7.0296  -20.4981 O   0  0  0  0  0
   -7.5445   -4.6425  -19.2355 O   0  0  0  0  0
   -5.9164   -2.6659  -17.8001 O   0  0  0  0  0
   -0.9858    0.9867  -20.6939 O   0  0  0  0  0
   -8.8478   -0.7420  -18.0081 O   0  0  0  0  0
   -6.9859   -0.1350  -16.2788 O   0  0  0  0  0
   -6.0294  -12.3139  -18.7091 O   0  0  0  0  0
   -6.0781  -13.6762  -21.1152 O   0  0  0  0  0
   -0.1081  -15.7999  -23.5965 O   0  0  0  0  0
   -6.5871  -17.0677  -20.6620 O   0  0  0  0  0
   -8.1970  -15.6833  -19.2106 O   0  0  0  0  0
   -5.8902  -10.6238  -18.6663 P   0  0  0  0  0
   -4.0695   -8.3960  -17.8483 P   0  0  0  0  0
   -4.4615   -5.9035  -18.9627 P   0  0  0  0  0
   -6.6778   -5.3649  -20.5043 P   0  0  0  0  0
   -4.2139  -10.1877  -18.1184 C   0  0  0  0  0
   -7.5097   -3.2726  -19.4864 C   0  0  0  0  0
   -7.2600   -2.5118  -18.1982 C   0  0  0  0  0
   -5.3992   -1.3806  -17.5223 C   0  0  0  0  0
   -3.5570    0.0377  -18.4699 C   0  0  0  0  0
   -2.6445    2.0661  -17.7629 C   0  0  0  0  0
   -1.7892    1.0040  -19.7225 C   0  0  0  0  0
   -2.7148   -0.0152  -19.5238 C   0  0  0  0  0
   -3.9518   -1.7353  -19.5763 C   0  0  0  0  0
   -6.5148   -0.3601  -17.5770 C   0  0  0  0  0
   -7.5491   -1.0504  -18.4177 C   0  0  0  0  0
   -7.2529  -12.5677  -19.3353 C   0  0  0  0  0
   -7.1571  -13.7973  -20.2243 C   0  0  0  0  0
   -6.9687  -15.0466  -19.3965 C   0  0  0  0  0
   -6.0083  -15.8771  -20.2137 C   0  0  0  0  0
   -5.6804  -14.9923  -21.3991 C   0  0  0  0  0
   -3.2294  -14.6334  -20.8831 C   0  0  0  0  0
   -2.3162  -15.4137  -22.6675 C   0  0  0  0  0
   -3.6597  -15.5164  -22.7883 C   0  0  0  0  0
   -3.4506  -16.5339  -24.8777 C   0  0  0  0  0
   -1.4897  -15.8842  -23.6809 C   0  0  0  0  0
   -0.7209  -14.5883  -20.9030 C   0  0  0  0  0
   -5.6926  -18.0652  -20.2770 C   0  0  0  0  0
   -4.3514   -1.0344  -18.4812 N   0  0  0  0  0
   -3.5497    1.0559  -17.5747 N   0  0  0  0  0
   -1.7737    2.0360  -18.8263 N   0  0  0  0  0
   -2.9357   -1.1253  -20.2486 N   0  0  0  0  0
   -2.5947    3.1478  -16.8424 N   0  0  0  0  0
   -4.2519  -15.0348  -21.6845 N   0  0  0  0  0
   -2.0288  -14.8587  -21.4753 N   0  0  0  0  0
   -4.2548  -16.0726  -23.8719 N   0  0  0  0  0
   -2.0849  -16.4393  -24.7764 N   0  0  0  0  0
   -4.0352  -17.1269  -26.0321 N   0  0  0  0  0
 21  2  1  0  0  0
 21 25  1  0  0  0
 21 16  1  0  0  0
 22  4  1  0  0  0
 22  5  1  0  0  0
 23  5  1  0  0  0
 23  7  1  0  0  0
 23  8  1  0  0  0
 24  8  1  0  0  0
 24 10  1  0  0  0
 24 11  1  0  0  0
 25 22  1  0  0  0
 26 11  1  0  0  0
 27 26  1  0  0  0
 27 12  1  0  0  0
 28 12  1  0  0  0
 28 48  1  0  0  0
 28 34  1  0  0  0
 29 49  1  0  0  0
 30 50  1  0  0  0
 30 52  1  0  0  0
 31 32  1  0  0  0
 32 51  1  0  0  0
 33 48  1  0  0  0
 34 35  1  0  0  0
 34 15  1  0  0  0
 35 14  1  0  0  0
 35 27  1  0  0  0
 36 16  1  0  0  0
 37 36  1  0  0  0
 37 38  1  0  0  0
 37 17  1  0  0  0
 38 39  1  0  0  0
 38 20  1  0  0  0
 39 40  1  0  0  0
 39 19  1  0  0  0
 40 17  1  0  0  0
 40 53  1  0  0  0
 43 55  1  0  0  0
 43 53  1  0  0  0
 44 56  1  0  0  0
 44 57  1  0  0  0
 45 18  1  0  0  0
 45 42  1  0  0  0
 46 54  1  0  0  0
 47 19  1  0  0  0
 48 29  1  0  0  0
 50 31  1  0  0  0
 53 41  1  0  0  0
 54 42  1  0  0  0
 21  1  2  0  0  0
 22  3  2  0  0  0
 23  6  2  0  0  0
 24  9  2  0  0  0
 30 49  2  0  0  0
 31 13  2  0  0  0
 32 29  2  0  0  0
 33 51  2  0  0  0
 41 54  2  0  0  0
 42 43  2  0  0  0
 44 55  2  0  0  0
 45 56  2  0  0  0
M  CHG  2   7  -1  54   1
M  END
> <rmsd>
0.579927564

$$$$
CHEMBL3823242 PubChem-127048247


 40 41  0  0  0  0  0  0  0  0999 V2000
   -6.8902   -2.3332  -17.9012 O   0  0  0  0  0
   -3.9007   -5.7984  -17.3102 O   0  0  0  0  0
   -4.5653   -8.2165  -16.5300 O   0  0  0  0  0
   -4.1260   -7.9239  -19.0965 O   0  0  0  0  0
   -2.0814   -7.8687  -17.2513 O   0  0  0  0  0
   -7.4280   -5.0282  -17.1593 O   0  0  0  0  0
   -7.6084   -7.6354  -16.8913 O   0  0  0  0  0
   -9.8268   -6.2828  -16.6385 O   0  0  0  0  0
   -7.8721   -6.2327  -14.6939 O   0  0  0  0  0
   -6.5772   -3.1837  -15.2222 O   0  0  0  0  0
   -4.6287   -1.8928  -14.0171 O   0  0  0  0  0
   -6.6305   -2.6469  -12.5171 O   0  0  0  0  0
   -4.8054   -4.4583  -13.5057 O   0  0  0  0  0
   -6.4215   -5.6996  -20.4759 O   0  0  0  0  0
   -8.3496   -7.0478  -21.6147 O   0  0  0  0  0
   -9.0857   -5.3423  -19.7786 O   0  0  0  0  0
   -8.1845   -4.5204  -22.2578 O   0  0  0  0  0
   -4.5198   -2.1411  -19.4653 O   0  0  0  0  0
   -7.2266   -0.3959  -16.1462 O   0  0  0  0  0
   -8.7163   -0.3045  -18.2867 O   0  0  0  0  0
   -6.0254    0.2680  -18.3770 O   0  0  0  0  0
   -5.6213   -2.5825  -17.3578 C   0  0  0  0  0
   -4.6472   -3.0793  -18.4352 C   0  0  0  0  0
   -5.0071   -4.4735  -18.9802 C   0  0  0  0  0
   -5.1585   -5.4942  -17.8408 C   0  0  0  0  0
   -6.0972   -5.0106  -16.7248 C   0  0  0  0  0
   -5.7016   -3.6135  -16.2244 C   0  0  0  0  0
   -6.2353   -4.4485  -19.8845 C   0  0  0  0  0
   -3.1467   -1.8979  -19.5728 C   0  0  0  0  0
   -2.8129   -0.5531  -19.0206 C   0  0  0  0  0
   -2.9207   -0.3055  -17.6461 C   0  0  0  0  0
   -2.6011    0.9554  -17.1341 C   0  0  0  0  0
   -2.1683    1.9695  -17.9944 C   0  0  0  0  0
   -2.0546    1.7221  -19.3664 C   0  0  0  0  0
   -2.3754    0.4613  -19.8787 C   0  0  0  0  0
   -3.7020   -7.4702  -17.5213 P   0  0  0  0  0
   -8.1606   -6.3322  -16.3589 P   0  0  0  0  0
   -5.6269   -3.0140  -13.8275 P   0  0  0  0  0
   -8.0174   -5.6884  -21.0448 P   0  0  0  0  0
   -7.2060   -0.6866  -17.6306 P   0  0  0  0  0
 22  1  1  0  0  0
 22 23  1  0  0  0
 23 24  1  0  0  0
 23 18  1  0  0  0
 24 25  1  0  0  0
 24 28  1  0  0  0
 25  2  1  0  0  0
 25 26  1  0  0  0
 26  6  1  0  0  0
 26 27  1  0  0  0
 27 10  1  0  0  0
 27 22  1  0  0  0
 28 14  1  0  0  0
 29 18  1  0  0  0
 29 30  1  0  0  0
 31 32  1  0  0  0
 33 34  1  0  0  0
 35 30  1  0  0  0
 36  2  1  0  0  0
 36  4  1  0  0  0
 36  5  1  0  0  0
 37  6  1  0  0  0
 37  8  1  0  0  0
 37  9  1  0  0  0
 38 10  1  0  0  0
 38 12  1  0  0  0
 38 13  1  0  0  0
 39 14  1  0  0  0
 39 16  1  0  0  0
 39 17  1  0  0  0
 40  1  1  0  0  0
 40 20  1  0  0  0
 40 21  1  0  0  0
 30 31  2  0  0  0
 32 33  2  0  0  0
 34 35  2  0  0  0
 36  3  2  0  0  0
 37  7  2  0  0  0
 38 11  2  0  0  0
 39 15  2  0  0  0
 40 19  2  0  0  0
M  END
> <rmsd>
0.598770678

$$$$
CHEMBL500817 PubChem-158246617 PubChem-16155032


 99111  0  0  0  0  0  0  0  0999 V2000
   -4.9267  -10.0484  -22.4719 C   0  0  0  0  0
   -5.4461   -9.3146  -21.4075 C   0  0  0  0  0
   -4.6800   -8.1834  -20.8737 C   0  0  0  0  0
   -3.4202   -6.1025  -20.4358 C   0  0  0  0  0
   -3.6065   -6.9448  -19.3373 C   0  0  0  0  0
   -3.0493   -6.6667  -18.0030 C   0  0  0  0  0
   -3.5588   -4.1908  -18.0518 C   0  0  0  0  0
   -2.6870   -2.9809  -18.1296 C   0  0  0  0  0
   -1.6987   -0.9804  -16.9609 C   0  0  0  0  0
   -0.6058   -0.7213  -16.2170 C   0  0  0  0  0
    0.0231   -1.8167  -15.4044 C   0  0  0  0  0
    1.1590    0.8741  -15.5167 C   0  0  0  0  0
   -2.3347    0.0537  -17.8093 C   0  0  0  0  0
   -2.9283    1.8434  -19.4121 C   0  0  0  0  0
   -3.9982    1.0904  -18.9171 C   0  0  0  0  0
   -5.3945    1.3854  -19.3035 C   0  0  0  0  0
   -6.4594   -0.7230  -18.2453 C   0  0  0  0  0
   -6.3119   -1.7961  -19.3028 C   0  0  0  0  0
   -5.6816   -3.1529  -21.2789 C   0  0  0  0  0
   -6.8449   -3.5503  -20.6170 C   0  0  0  0  0
   -7.6898   -4.6323  -21.1520 C   0  0  0  0  0
   -8.8177   -5.6076  -19.0852 C   0  0  0  0  0
   -8.3085   -7.0253  -19.0548 C   0  0  0  0  0
   -7.7026   -9.3909  -18.5605 C   0  0  0  0  0
   -7.3345   -8.9079  -19.8162 C   0  0  0  0  0
   -6.6550   -9.7292  -20.8229 C   0  0  0  0  0
   -6.7824  -11.5873  -22.3201 C   0  0  0  0  0
   -5.5849  -11.1846  -22.9385 C   0  0  0  0  0
   -7.5484  -12.7643  -22.7813 C   0  0  0  0  0
   -8.1380  -14.5006  -24.0900 C   0  0  0  0  0
   -9.1699  -14.6022  -23.1598 C   0  0  0  0  0
   -8.0143  -15.4083  -25.2385 C   0  0  0  0  0
   -9.0111  -17.4310  -26.4777 C   0  0  0  0  0
   -8.2854  -17.2617  -27.5810 C   0  0  0  0  0
   -9.9540  -18.5570  -26.3884 C   0  0  0  0  0
  -10.2413   -5.5761  -18.5603 C   0  0  0  0  0
  -11.7083   -3.6620  -19.0661 C   0  0  0  0  0
  -11.9801   -2.2208  -18.9316 C   0  0  0  0  0
  -11.1508   -1.2880  -18.3074 C   0  0  0  0  0
  -11.8000   -0.0569  -18.4132 C   0  0  0  0  0
  -12.9751   -0.3008  -19.0944 C   0  0  0  0  0
  -13.8814    0.7138  -19.3925 C   0  0  0  0  0
  -13.5729    2.0157  -18.9693 C   0  0  0  0  0
  -12.3740    2.2760  -18.2800 C   0  0  0  0  0
  -11.4672    1.2420  -17.9901 C   0  0  0  0  0
  -10.1916    1.5747  -17.2890 C   0  0  0  0  0
   -9.0843    0.2869  -15.5088 C   0  0  0  0  0
   -7.7940    0.2105  -16.3088 C   0  0  0  0  0
   -7.7236   -0.9006  -17.3895 C   0  0  0  0  0
   -9.8362   -1.5961  -17.6683 C   0  0  0  0  0
   -6.4128   -0.5585  -14.6280 C   0  0  0  0  0
   -4.9891   -1.1506  -14.7231 C   0  0  0  0  0
   -4.5692   -1.7996  -13.3914 C   0  0  0  0  0
   -4.8402   -0.8950  -12.2001 C   0  0  0  0  0
   -5.6560    0.3378  -12.6231 C   0  0  0  0  0
   -6.0677    1.1837  -11.4329 C   0  0  0  0  0
   -5.7427   -2.9997  -11.8712 C   0  0  0  0  0
   -7.1975   -3.4283  -11.8371 C   0  0  0  0  0
   -4.7560   -1.8606  -10.0785 C   0  0  0  0  0
   -3.0824   -2.1124  -13.4565 C   0  0  0  0  0
   -4.8115   -3.9437  -17.2100 C   0  0  0  0  0
   -5.8605   -5.0067  -17.4877 C   0  0  0  0  0
   -4.1673   -6.8491  -21.7506 S   0  0  0  0  0
   -1.5353    1.2160  -18.7158 S   0  0  0  0  0
   -5.0878   -1.8195  -20.4512 S   0  0  0  0  0
   -8.4550   -8.1006  -17.7727 S   0  0  0  0  0
   -8.9309  -13.3637  -22.0445 S   0  0  0  0  0
   -4.3005   -8.0926  -19.5842 N   0  0  0  0  0
   -2.7972   -5.3331  -17.5571 N   0  0  0  0  0
   -2.2687   -2.2991  -16.9403 N   0  0  0  0  0
   -3.6659    0.1029  -18.0407 N   0  0  0  0  0
   -6.5066    0.5912  -18.8829 N   0  0  0  0  0
   -8.8399   -5.1149  -20.4550 N   0  0  0  0  0
   -7.2765  -10.8454  -21.2893 N   0  0  0  0  0
   -7.2524  -13.4890  -23.8810 N   0  0  0  0  0
   -8.9344  -16.5014  -25.3848 N   0  0  0  0  0
  -10.7432  -18.7318  -25.2158 N   0  0  0  0  0
   -7.6673   -7.6164  -20.0837 N   0  0  0  0  0
  -13.0808   -1.5993  -19.4090 N   0  0  0  0  0
   -5.5957   -1.6897  -11.2535 N   0  0  0  0  0
   -7.1966   -2.7977  -19.5342 N   0  0  0  0  0
   -2.7480   -7.6325  -17.2538 O   0  0  0  0  0
   -2.2640   -2.6079  -19.2541 O   0  0  0  0  0
   -0.0511    0.5678  -16.1997 O   0  0  0  0  0
   -5.6292    2.3901  -20.0231 O   0  0  0  0  0
   -7.4464   -5.0898  -22.2990 O   0  0  0  0  0
   -5.0369  -11.8951  -23.9967 O   0  0  0  0  0
   -7.0886  -15.2258  -26.0746 O   0  0  0  0  0
  -10.0663  -19.3812  -27.3367 O   0  0  0  0  0
  -10.6388   -4.2285  -18.3707 O   0  0  0  0  0
  -12.4314   -4.3748  -19.8118 O   0  0  0  0  0
  -14.1252   -2.1880  -20.0904 O   0  0  0  0  0
  -10.1798    1.0020  -15.9907 O   0  0  0  0  0
   -9.2297   -0.3920  -14.4604 O   0  0  0  0  0
   -8.8391   -0.8051  -18.2378 O   0  0  0  0  0
   -6.5952    0.4507  -15.5906 O   0  0  0  0  0
   -6.7929   -0.0795  -13.3408 O   0  0  0  0  0
   -5.2841   -2.9885  -13.2023 O   0  0  0  0  0
   -4.4948   -3.9660  -15.8497 O   0  0  0  0  0
  2  3  1  0  0  0
  3 63  1  0  0  0
  4 63  1  0  0  0
  5 68  1  0  0  0
  5  6  1  0  0  0
  6 69  1  0  0  0
  7 69  1  0  0  0
  7  8  1  0  0  0
  7 61  1  0  0  0
  8 70  1  0  0  0
  9 13  1  0  0  0
 10 84  1  0  0  0
 11 10  1  0  0  0
 12 84  1  0  0  0
 13 64  1  0  0  0
 14 64  1  0  0  0
 15 71  1  0  0  0
 15 16  1  0  0  0
 16 72  1  0  0  0
 17 72  1  0  0  0
 17 18  1  0  0  0
 18 65  1  0  0  0
 19 65  1  0  0  0
 20 21  1  0  0  0
 20 81  1  0  0  0
 21 73  1  0  0  0
 22 73  1  0  0  0
 22 23  1  0  0  0
 22 36  1  0  0  0
 23 66  1  0  0  0
 24 66  1  0  0  0
 25 26  1  0  0  0
 25 78  1  0  0  0
 26  2  1  0  0  0
 27 74  1  0  0  0
 27 29  1  0  0  0
 28 87  1  0  0  0
 28  1  1  0  0  0
 29 67  1  0  0  0
 30 75  1  0  0  0
 30 32  1  0  0  0
 31 67  1  0  0  0
 32 76  1  0  0  0
 33 35  1  0  0  0
 35 77  1  0  0  0
 36 90  1  0  0  0
 37 90  1  0  0  0
 37 38  1  0  0  0
 39 40  1  0  0  0
 41 79  1  0  0  0
 41 42  1  0  0  0
 43 44  1  0  0  0
 45 40  1  0  0  0
 46 45  1  0  0  0
 46 93  1  0  0  0
 47 93  1  0  0  0
 48 47  1  0  0  0
 48 49  1  0  0  0
 48 96  1  0  0  0
 49 95  1  0  0  0
 49 17  1  0  0  0
 50 95  1  0  0  0
 50 39  1  0  0  0
 51 96  1  0  0  0
 51 52  1  0  0  0
 51 97  1  0  0  0
 52 53  1  0  0  0
 53 54  1  0  0  0
 53 60  1  0  0  0
 53 98  1  0  0  0
 54 55  1  0  0  0
 54 80  1  0  0  0
 55 97  1  0  0  0
 55 56  1  0  0  0
 57 80  1  0  0  0
 57 98  1  0  0  0
 57 58  1  0  0  0
 59 80  1  0  0  0
 61 62  1  0  0  0
 61 99  1  0  0  0
 70  9  1  0  0  0
 76 33  1  0  0  0
 79 92  1  0  0  0
 79 38  1  0  0  0
  1  2  2  0  0  0
  3 68  2  0  0  0
  4  5  2  0  0  0
  6 82  2  0  0  0
  8 83  2  0  0  0
  9 10  2  0  0  0
 13 71  2  0  0  0
 14 15  2  0  0  0
 16 85  2  0  0  0
 18 81  2  0  0  0
 19 20  2  0  0  0
 21 86  2  0  0  0
 23 78  2  0  0  0
 24 25  2  0  0  0
 26 74  2  0  0  0
 27 28  2  0  0  0
 29 75  2  0  0  0
 30 31  2  0  0  0
 32 88  2  0  0  0
 33 34  2  0  0  0
 35 89  2  0  0  0
 37 91  2  0  0  0
 38 39  2  0  0  0
 40 41  2  0  0  0
 42 43  2  0  0  0
 44 45  2  0  0  0
 47 94  2  0  0  0
M  END
> <rmsd>
0.671028852

$$$$
CHEMBL414569 PubChem-44413861


 93104  0  0  0  0  0  0  0  0999 V2000
    0.2767  -16.2661  -25.7362 N   0  0  0  0  0
   -1.0945  -14.5949  -26.7219 N   0  0  0  0  0
    0.6639  -16.3604  -23.3426 N   0  0  0  0  0
   -1.1095  -13.9449  -23.2718 N   0  0  0  0  0
   -2.0350  -13.0392  -25.1236 N   0  0  0  0  0
   -4.0710   -7.8349  -21.1721 N   0  0  0  0  0
   -1.8594   -8.1209  -20.2217 N   0  0  0  0  0
   -1.8302   -8.1597  -17.8411 N   0  0  0  0  0
   -5.1905   -7.7268  -19.2027 N   0  0  0  0  0
   -3.8583   -7.9352  -16.5363 N   0  0  0  0  0
   -4.2534   -0.5216  -19.3111 N   0  0  0  0  0
   -3.0844   -0.0092  -17.2610 N   0  0  0  0  0
   -1.5328    1.7864  -17.4617 N   0  0  0  0  0
   -3.2579    1.0512  -20.5985 N   0  0  0  0  0
   -1.2047    2.9702  -19.5544 N   0  0  0  0  0
   -9.2858    5.7268  -21.5934 N   0  0  0  0  0
   -9.3520    6.4021  -19.2676 N   0  0  0  0  0
  -10.9404    8.1109  -18.8053 N   0  0  0  0  0
  -10.8800    7.1577  -22.3355 N   0  0  0  0  0
  -12.3335    9.0671  -20.5389 N   0  0  0  0  0
   -0.2912  -15.6920  -26.8470 C   0  0  0  0  0
   -1.3100  -14.1075  -25.4731 C   0  0  0  0  0
   -0.7631  -14.6526  -24.3666 C   0  0  0  0  0
    0.0582  -15.7638  -24.4835 C   0  0  0  0  0
   -1.8909  -12.9483  -23.7778 C   0  0  0  0  0
   -2.7318  -12.0952  -25.9857 C   0  0  0  0  0
   -1.7354  -11.2902  -26.7911 C   0  0  0  0  0
   -0.7486   -7.7636  -24.3870 C   0  0  0  0  0
   -2.2534   -7.8384  -24.1723 C   0  0  0  0  0
   -2.8521   -6.4555  -24.2383 C   0  0  0  0  0
   -3.9910   -6.5194  -23.2400 C   0  0  0  0  0
   -3.8395   -7.8929  -22.6169 C   0  0  0  0  0
   -3.2032   -7.9568  -20.1570 C   0  0  0  0  0
   -1.1691   -8.2227  -19.0439 C   0  0  0  0  0
   -3.1833   -7.9932  -17.7869 C   0  0  0  0  0
   -3.8721   -7.8898  -18.9850 C   0  0  0  0  0
   -5.2775   -7.6970  -20.5625 C   0  0  0  0  0
   -5.6793   -2.9811  -21.9013 C   0  0  0  0  0
   -6.0106   -3.0328  -20.4189 C   0  0  0  0  0
   -7.0907   -2.0253  -20.1168 C   0  0  0  0  0
   -6.5923   -1.2805  -18.9223 C   0  0  0  0  0
   -5.1089   -1.6225  -18.8728 C   0  0  0  0  0
   -3.3796    0.1666  -18.5713 C   0  0  0  0  0
   -2.1444    0.8143  -16.7066 C   0  0  0  0  0
   -1.8379    1.9510  -18.7818 C   0  0  0  0  0
   -2.7882    1.1060  -19.3379 C   0  0  0  0  0
   -4.1605    0.0318  -20.5495 C   0  0  0  0  0
   -7.5833    2.9011  -18.6771 C   0  0  0  0  0
   -7.5097    3.0675  -20.1876 C   0  0  0  0  0
   -6.3200    3.9358  -20.5490 C   0  0  0  0  0
   -6.9443    5.1379  -21.2102 C   0  0  0  0  0
   -8.3153    4.6399  -21.5860 C   0  0  0  0  0
   -9.7341    6.4634  -20.5706 C   0  0  0  0  0
   -9.9627    7.2456  -18.3810 C   0  0  0  0  0
  -11.3171    8.1653  -20.1157 C   0  0  0  0  0
  -10.6824    7.3169  -21.0126 C   0  0  0  0  0
  -10.0029    6.1654  -22.6626 C   0  0  0  0  0
   -2.2806  -11.3184  -28.1971 C   0  0  0  0  0
   -3.5873  -12.0694  -28.0702 C   0  0  0  0  0
   -3.7478  -13.0568  -29.2141 C   0  0  0  0  0
   -1.6555   -9.9901  -26.2754 O   0  0  0  0  0
    0.7292   -8.9556  -26.6438 O   0  0  0  0  0
   -0.1508   -9.0075  -24.1566 O   0  0  0  0  0
   -2.5557   -8.3826  -22.9137 O   0  0  0  0  0
   -5.2422   -6.4224  -23.8624 O   0  0  0  0  0
   -7.1209   -5.5861  -22.2501 O   0  0  0  0  0
   -4.9476   -4.1122  -22.2710 O   0  0  0  0  0
   -4.8559   -2.7647  -19.6538 O   0  0  0  0  0
   -6.8055    0.0886  -19.0983 O   0  0  0  0  0
   -7.1276    0.7838  -16.5840 O   0  0  0  0  0
   -8.6292    2.0325  -18.3379 O   0  0  0  0  0
   -8.6981    3.6522  -20.6642 O   0  0  0  0  0
   -6.2466    5.5457  -22.3548 O   0  0  0  0  0
   -4.9809    7.6682  -23.2218 O   0  0  0  0  0
   -4.4022    6.9061  -20.7912 O   0  0  0  0  0
   -6.8222    8.1009  -21.4159 O   0  0  0  0  0
   -5.5047    3.2367  -21.4409 O   0  0  0  0  0
   -9.0898   -0.5921  -17.6474 O   0  0  0  0  0
   -8.2743   -2.6865  -19.8001 O   0  0  0  0  0
   -6.7248   -4.1675  -24.4009 O   0  0  0  0  0
   -3.2957   -6.1897  -25.5368 O   0  0  0  0  0
    0.7061  -11.2805  -25.4605 O   0  0  0  0  0
   -2.5222  -10.0338  -28.6917 O   0  0  0  0  0
   -3.5958  -12.7793  -26.8562 O   0  0  0  0  0
   -3.7215  -12.3956  -30.4376 O   0  0  0  0  0
   -3.2647  -12.9484  -32.9480 O   0  0  0  0  0
   -4.5243  -14.7878  -31.5921 O   0  0  0  0  0
   -1.8333  -14.2820  -31.2091 O   0  0  0  0  0
   -0.0749   -9.7906  -25.6681 P   0  0  0  0  0
   -6.0247   -5.0826  -23.1636 P   0  0  0  0  0
   -7.8828    0.5762  -17.8796 P   0  0  0  0  0
   -5.5996    7.0700  -21.9788 P   0  0  0  0  0
   -3.3344  -13.5854  -31.5817 P   0  0  0  0  0
  5 22  1  0  0  0
  6 33  1  0  0  0
 11 43  1  0  0  0
 16 53  1  0  0  0
 21  2  1  0  0  0
 22 23  1  0  0  0
 23  4  1  0  0  0
 24  3  1  0  0  0
 24  1  1  0  0  0
 25  5  1  0  0  0
 26  5  1  0  0  0
 26 27  1  0  0  0
 26 84  1  0  0  0
 27 61  1  0  0  0
 27 58  1  0  0  0
 28 63  1  0  0  0
 29 28  1  0  0  0
 29 30  1  0  0  0
 29 64  1  0  0  0
 30 31  1  0  0  0
 30 81  1  0  0  0
 31 32  1  0  0  0
 31 65  1  0  0  0
 32  6  1  0  0  0
 32 64  1  0  0  0
 34  7  1  0  0  0
 35  8  1  0  0  0
 35 10  1  0  0  0
 36  9  1  0  0  0
 36 33  1  0  0  0
 37  6  1  0  0  0
 38 67  1  0  0  0
 39 38  1  0  0  0
 39 40  1  0  0  0
 39 68  1  0  0  0
 40 41  1  0  0  0
 40 79  1  0  0  0
 41 42  1  0  0  0
 41 69  1  0  0  0
 42 11  1  0  0  0
 42 68  1  0  0  0
 44 12  1  0  0  0
 45 13  1  0  0  0
 45 15  1  0  0  0
 46 14  1  0  0  0
 46 43  1  0  0  0
 47 11  1  0  0  0
 48 71  1  0  0  0
 49 48  1  0  0  0
 49 50  1  0  0  0
 49 72  1  0  0  0
 50 51  1  0  0  0
 50 77  1  0  0  0
 51 52  1  0  0  0
 51 73  1  0  0  0
 52 16  1  0  0  0
 52 72  1  0  0  0
 54 17  1  0  0  0
 55 18  1  0  0  0
 55 20  1  0  0  0
 56 19  1  0  0  0
 56 53  1  0  0  0
 57 16  1  0  0  0
 58 83  1  0  0  0
 58 59  1  0  0  0
 59 84  1  0  0  0
 59 60  1  0  0  0
 60 85  1  0  0  0
 89 61  1  0  0  0
 89 63  1  0  0  0
 89 82  1  0  0  0
 90 65  1  0  0  0
 90 67  1  0  0  0
 90 80  1  0  0  0
 91 69  1  0  0  0
 91 71  1  0  0  0
 91 78  1  0  0  0
 92 73  1  0  0  0
 92 75  1  0  0  0
 92 76  1  0  0  0
 93 85  1  0  0  0
 93 87  1  0  0  0
 93 88  1  0  0  0
 21  1  2  0  0  0
 22  2  2  0  0  0
 23 24  2  0  0  0
 25  4  2  0  0  0
 33  7  2  0  0  0
 34  8  2  0  0  0
 35 36  2  0  0  0
 37  9  2  0  0  0
 43 12  2  0  0  0
 44 13  2  0  0  0
 45 46  2  0  0  0
 47 14  2  0  0  0
 53 17  2  0  0  0
 54 18  2  0  0  0
 55 56  2  0  0  0
 57 19  2  0  0  0
 89 62  2  0  0  0
 90 66  2  0  0  0
 91 70  2  0  0  0
 92 74  2  0  0  0
 93 86  2  0  0  0
M  END
> <rmsd>
0.651209533

$$$$
CHEMBL3350538 PubChem-118718993


 49 51  0  0  0  0  0  0  0  0999 V2000
   -4.1636    0.1088  -16.2850 N   0  0  0  0  0
   -2.2958    0.8749  -15.2686 N   0  0  0  0  0
   -1.5078    1.9516  -18.6829 N   0  0  0  0  0
   -3.5937    0.8258  -18.5262 N   0  0  0  0  0
   -0.0561    2.3334  -16.7603 N   0  0  0  0  0
    1.0576    6.7648  -15.7451 N   0  0  0  0  0
    4.2394   10.0725  -15.2581 N   0  0  0  0  0
   -5.3780   -0.6714  -16.4963 C   0  0  0  0  0
   -6.3749    0.0736  -17.3631 C   0  0  0  0  0
   -6.9005   -0.9965  -18.2968 C   0  0  0  0  0
   -6.2184   -2.2626  -17.8189 C   0  0  0  0  0
   -5.8369   -3.1385  -19.0004 C   0  0  0  0  0
   -3.3805    0.7117  -17.1920 C   0  0  0  0  0
   -2.2670    1.1826  -16.5835 C   0  0  0  0  0
   -3.4703    0.2044  -15.1233 C   0  0  0  0  0
   -1.2790    1.8285  -17.3349 C   0  0  0  0  0
   -2.6438    1.4608  -19.2731 C   0  0  0  0  0
    0.1773    2.3867  -15.3225 C   0  0  0  0  0
   -0.6028    3.5314  -14.6911 C   0  0  0  0  0
    0.2618    4.7754  -14.5821 C   0  0  0  0  0
    0.2444    5.5619  -15.8806 C   0  0  0  0  0
    0.4365    8.0609  -15.7362 C   0  0  0  0  0
    1.2509    9.3099  -15.5808 C   0  0  0  0  0
    1.3708   10.0595  -16.8991 C   0  0  0  0  0
    2.3768    9.3965  -17.8258 C   0  0  0  0  0
    3.7680    9.9917  -17.6600 C   0  0  0  0  0
    4.5120    9.3575  -16.4951 C   0  0  0  0  0
    4.7655   11.3725  -14.9856 C   0  0  0  0  0
    4.3924   12.0632  -13.7207 C   0  0  0  0  0
    2.5073    6.6267  -15.6558 C   0  0  0  0  0
    1.0384    2.7309  -17.6314 C   0  0  0  0  0
   -5.0665   -1.8976  -17.1056 O   0  0  0  0  0
   -6.9845   -3.7123  -19.5473 O   0  0  0  0  0
   -7.6495   -5.1505  -21.6312 O   0  0  0  0  0
   -5.2369   -5.6045  -20.6483 O   0  0  0  0  0
   -6.5529   -6.2945  -18.4454 O   0  0  0  0  0
   -4.6749   -7.9491  -19.2401 O   0  0  0  0  0
   -2.3908   -8.0056  -17.9768 O   0  0  0  0  0
   -3.9416   -5.9984  -17.3684 O   0  0  0  0  0
   -2.6188   -6.1556  -19.7919 O   0  0  0  0  0
   -7.0480   -7.6993  -20.5851 O   0  0  0  0  0
   -5.8610   -3.3065  -22.0325 O   0  0  0  0  0
   -8.2876   -1.1405  -18.2080 O   0  0  0  0  0
   -7.3799    0.6095  -16.5567 O   0  0  0  0  0
   -0.8186    8.1607  -15.8417 O   0  0  0  0  0
    5.5491   11.9357  -15.7996 O   0  0  0  0  0
   -6.4703   -4.4747  -20.9707 P   0  0  0  0  0
   -5.8960   -6.8512  -19.6908 P   0  0  0  0  0
   -3.3911   -7.0480  -18.5806 P   0  0  0  0  0
  1 13  1  0  0  0
  6 22  1  0  0  0
  7 28  1  0  0  0
  8  1  1  0  0  0
  8  9  1  0  0  0
  8 32  1  0  0  0
  9 10  1  0  0  0
  9 44  1  0  0  0
 10 11  1  0  0  0
 10 43  1  0  0  0
 11 32  1  0  0  0
 11 12  1  0  0  0
 12 33  1  0  0  0
 13  4  1  0  0  0
 14  2  1  0  0  0
 14 16  1  0  0  0
 15  1  1  0  0  0
 16  5  1  0  0  0
 17  3  1  0  0  0
 18  5  1  0  0  0
 18 19  1  0  0  0
 19 20  1  0  0  0
 20 21  1  0  0  0
 21  6  1  0  0  0
 23 22  1  0  0  0
 23 24  1  0  0  0
 24 25  1  0  0  0
 25 26  1  0  0  0
 26 27  1  0  0  0
 27  7  1  0  0  0
 29 28  1  0  0  0
 30  6  1  0  0  0
 31  5  1  0  0  0
 47 33  1  0  0  0
 47 35  1  0  0  0
 47 42  1  0  0  0
 48 35  1  0  0  0
 48 37  1  0  0  0
 48 41  1  0  0  0
 49 37  1  0  0  0
 49 39  1  0  0  0
 49 40  1  0  0  0
 13 14  2  0  0  0
 15  2  2  0  0  0
 16  3  2  0  0  0
 17  4  2  0  0  0
 22 45  2  0  0  0
 28 46  2  0  0  0
 47 34  2  0  0  0
 48 36  2  0  0  0
 49 38  2  0  0  0
M  END
> <rmsd>
0.574827909

$$$$
CHEMBL1160360 PubChem-10533453


 42 44  0  0  0  0  0  0  0  0999 V2000
   -6.1411   -5.7952  -19.2952 P   0  0  0  0  0
   -3.6589   -7.3850  -18.7784 P   0  0  0  0  0
   -6.3923   -3.9593  -21.3310 P   0  0  0  0  0
   -6.8120   -6.9932  -19.9277 O   0  0  0  0  0
   -4.2687   -8.5985  -19.4422 O   0  0  0  0  0
   -2.5835   -7.8948  -17.5769 O   0  0  0  0  0
   -2.8118   -6.4857  -19.9325 O   0  0  0  0  0
   -5.2794   -4.9288  -20.4817 O   0  0  0  0  0
   -5.7133   -3.4072  -22.5649 O   0  0  0  0  0
   -6.9208   -2.6674  -20.3645 O   0  0  0  0  0
   -4.8476   -1.4352  -17.6995 O   0  0  0  0  0
   -8.1882   -0.5488  -18.3310 O   0  0  0  0  0
   -7.0059    0.2199  -16.1356 O   0  0  0  0  0
   -7.7298   -4.8753  -21.8194 O   0  0  0  0  0
   -7.3132   -4.8314  -18.5410 O   0  0  0  0  0
   -4.9633   -6.3590  -18.0263 C   0  0  0  0  0
   -5.7605   -2.1299  -19.7970 C   0  0  0  0  0
   -6.0551   -1.6291  -18.3953 C   0  0  0  0  0
   -4.8835   -0.1447  -17.1258 C   0  0  0  0  0
   -3.5365    1.9602  -17.3952 C   0  0  0  0  0
   -2.5451    2.3993  -18.1990 C   0  0  0  0  0
   -3.0488    0.4237  -18.7847 C   0  0  0  0  0
   -2.0182    3.6703  -18.0195 C   0  0  0  0  0
   -3.5510    3.9687  -16.2127 C   0  0  0  0  0
   -3.0140    4.3973  -13.6841 C   0  0  0  0  0
   -3.4629    3.0666  -13.1037 C   0  0  0  0  0
   -4.6331    3.2682  -12.1580 C   0  0  0  0  0
   -0.3827    5.4756  -18.6740 C   0  0  0  0  0
    0.7501    5.6900  -19.6649 C   0  0  0  0  0
   -6.2643    0.4525  -17.2981 C   0  0  0  0  0
   -6.8139   -0.3264  -18.4559 C   0  0  0  0  0
   -5.8279   -7.3060  -16.7916 Cl  0  0  0  0  0
   -4.2179   -4.9420  -17.2499 Cl  0  0  0  0  0
   -3.8765    0.7160  -17.7461 N   0  0  0  0  0
   -2.2089    1.4520  -19.0927 N   0  0  0  0  0
   -2.5420    4.4379  -17.0159 N   0  0  0  0  0
   -4.0597    2.7132  -16.3987 N   0  0  0  0  0
   -0.9620    4.1535  -18.8494 N   0  0  0  0  0
   -4.2072    5.0076  -14.9153 S   0  0  0  0  0
    0.2769    5.5732  -20.9575 F   0  0  0  0  0
    1.2750    6.9538  -19.4876 F   0  0  0  0  0
    1.7431    4.7537  -19.4522 F   0  0  0  0  0
  1 16  1  0  0  0
  1  8  1  0  0  0
  1 15  1  0  0  0
  2  6  1  0  0  0
  2  7  1  0  0  0
  3  8  1  0  0  0
  3 10  1  0  0  0
  3 14  1  0  0  0
 16  2  1  0  0  0
 16 32  1  0  0  0
 16 33  1  0  0  0
 17 10  1  0  0  0
 18 17  1  0  0  0
 18 11  1  0  0  0
 19 11  1  0  0  0
 19 34  1  0  0  0
 19 30  1  0  0  0
 20 37  1  0  0  0
 21 35  1  0  0  0
 21 23  1  0  0  0
 22 34  1  0  0  0
 23 38  1  0  0  0
 24 36  1  0  0  0
 24 39  1  0  0  0
 25 39  1  0  0  0
 25 26  1  0  0  0
 26 27  1  0  0  0
 28 38  1  0  0  0
 28 29  1  0  0  0
 29 40  1  0  0  0
 29 41  1  0  0  0
 29 42  1  0  0  0
 30 31  1  0  0  0
 30 13  1  0  0  0
 31 12  1  0  0  0
 31 18  1  0  0  0
 34 20  1  0  0  0
  1  4  2  0  0  0
  2  5  2  0  0  0
  3  9  2  0  0  0
 20 21  2  0  0  0
 22 35  2  0  0  0
 23 36  2  0  0  0
 24 37  2  0  0  0
M  END
> <rmsd>
0.578625023

$$$$
CHEMBL4578588 PubChem-155564831


 81 86  0  0  0  0  0  0  0  0999 V2000
   -7.2664   -0.1665  -16.3636 O   0  0  0  0  0
   -7.6899    2.0460  -17.3466 O   0  0  0  0  0
   -6.5170    0.2248  -18.8465 O   0  0  0  0  0
   -5.2245    2.6136  -18.5031 O   0  0  0  0  0
   -3.0441   -0.7457  -18.3227 O   0  0  0  0  0
   -3.9947   -5.6713  -17.9810 O   0  0  0  0  0
   -2.7094   -6.5434  -20.1017 O   0  0  0  0  0
   -2.4288   -7.7676  -18.0036 O   0  0  0  0  0
   -4.6586   -8.0635  -19.2823 O   0  0  0  0  0
   -6.3734   -6.0939  -19.5203 O   0  0  0  0  0
   -7.5377   -5.9964  -21.8734 O   0  0  0  0  0
   -8.9555   -5.7082  -19.8875 O   0  0  0  0  0
   -8.0688   -8.0851  -20.4295 O   0  0  0  0  0
    1.0013    1.5752  -17.4122 O   0  0  0  0  0
    1.9683    3.6814  -18.6774 O   0  0  0  0  0
    1.4285    3.9266  -16.2996 O   0  0  0  0  0
    3.5438    2.5569  -16.9529 O   0  0  0  0  0
   -3.1338    4.0783  -17.9973 O   0  0  0  0  0
   -2.4794    7.9195  -13.5868 O   0  0  0  0  0
   -3.3401   10.1736  -14.5576 O   0  0  0  0  0
   -6.0072   10.5337  -11.5813 O   0  0  0  0  0
   -7.2042   16.1558  -13.3868 O   0  0  0  0  0
   -6.4096   18.6548  -13.2656 O   0  0  0  0  0
   -5.7194   17.1520  -11.4602 O   0  0  0  0  0
   -8.1877   17.9726  -11.5111 O   0  0  0  0  0
   -9.6995   15.7594  -12.1462 O   0  0  0  0  0
  -12.0180   16.8810  -11.6635 O   0  0  0  0  0
  -11.0469   15.4673   -9.9109 O   0  0  0  0  0
  -12.0533   14.3086  -12.0060 O   0  0  0  0  0
   -4.9894   12.3278  -14.5911 O   0  0  0  0  0
   -5.6356   13.2987  -16.9441 O   0  0  0  0  0
   -5.2994   10.8807  -16.7551 O   0  0  0  0  0
   -7.4654   11.8968  -15.7559 O   0  0  0  0  0
   -4.6680    6.4092   -9.5500 O   0  0  0  0  0
   -6.8957    7.1299   -8.3393 O   0  0  0  0  0
   -5.5002    5.4201   -7.2625 O   0  0  0  0  0
   -4.6803    7.8902   -7.2124 O   0  0  0  0  0
   -9.1741    0.0665  -18.1131 O   0  0  0  0  0
   -7.6512    0.5691  -17.6169 S   0  0  0  0  0
   -3.4086   -7.0175  -18.8609 S   0  0  0  0  0
   -7.7671   -6.4350  -20.4555 S   0  0  0  0  0
    1.9710    2.9906  -17.3408 S   0  0  0  0  0
   -6.8394   17.5053  -12.3988 S   0  0  0  0  0
  -11.2288   15.6330  -11.3922 S   0  0  0  0  0
   -5.8306   12.0995  -16.0611 S   0  0  0  0  0
   -5.4868    6.6896   -8.0733 S   0  0  0  0  0
   -5.1413    0.3160  -18.6213 C   0  0  0  0  0
   -4.5308    1.5638  -18.4244 C   0  0  0  0  0
   -3.1481    1.6303  -18.1651 C   0  0  0  0  0
   -2.4565    2.8490  -17.9601 C   0  0  0  0  0
   -1.0775    2.8163  -17.7101 C   0  0  0  0  0
   -0.3736    1.6099  -17.6573 C   0  0  0  0  0
   -1.0567    0.4109  -17.8554 C   0  0  0  0  0
   -2.4296    0.4115  -18.1133 C   0  0  0  0  0
   -4.3438   -0.8473  -18.5911 C   0  0  0  0  0
   -4.8963   -2.1990  -18.8487 C   0  0  0  0  0
   -6.0384   -2.3977  -19.6376 C   0  0  0  0  0
   -6.5184   -3.6865  -19.8759 C   0  0  0  0  0
   -5.8618   -4.8049  -19.3381 C   0  0  0  0  0
   -4.6962   -4.6125  -18.5683 C   0  0  0  0  0
   -4.2323   -3.3169  -18.3288 C   0  0  0  0  0
   -2.5049    5.3389  -17.7785 C   0  0  0  0  0
   -2.0639    5.4712  -16.3353 C   0  0  0  0  0
   -1.4346    6.8335  -16.1190 C   0  0  0  0  0
   -0.6821    6.8685  -14.7976 C   0  0  0  0  0
   -1.6248    6.7829  -13.6090 C   0  0  0  0  0
   -3.4494    8.1236  -12.5983 C   0  0  0  0  0
   -3.6137    7.1812  -11.5706 C   0  0  0  0  0
   -4.5495    7.3733  -10.5557 C   0  0  0  0  0
   -5.3451    8.5241  -10.5670 C   0  0  0  0  0
   -5.2179    9.4672  -11.5878 C   0  0  0  0  0
   -4.2638    9.2805  -12.6158 C   0  0  0  0  0
   -4.1797   10.2658  -13.6204 C   0  0  0  0  0
   -5.0444   11.3661  -13.5810 C   0  0  0  0  0
   -5.9668   11.4778  -12.5173 C   0  0  0  0  0
   -6.9185   12.6053  -12.4030 C   0  0  0  0  0
   -8.1167   12.4315  -11.6962 C   0  0  0  0  0
   -9.0368   13.4761  -11.5927 C   0  0  0  0  0
   -8.7638   14.7211  -12.1790 C   0  0  0  0  0
   -7.5372   14.9196  -12.8360 C   0  0  0  0  0
   -6.6358   13.8607  -12.9604 C   0  0  0  0  0
 39  3  1  0  0  0
 39 38  1  0  0  0
 40  6  1  0  0  0
 40  9  1  0  0  0
 41 10  1  0  0  0
 41 13  1  0  0  0
 42 14  1  0  0  0
 42 17  1  0  0  0
 43 22  1  0  0  0
 43 25  1  0  0  0
 44 26  1  0  0  0
 44 29  1  0  0  0
 45 30  1  0  0  0
 45 33  1  0  0  0
 46 34  1  0  0  0
 46 37  1  0  0  0
 47  3  1  0  0  0
 47 48  1  0  0  0
 48 49  1  0  0  0
 50 51  1  0  0  0
 50 18  1  0  0  0
 52 53  1  0  0  0
 52 14  1  0  0  0
 54  5  1  0  0  0
 54 49  1  0  0  0
 55  5  1  0  0  0
 55 56  1  0  0  0
 57 58  1  0  0  0
 59 60  1  0  0  0
 59 10  1  0  0  0
 60  6  1  0  0  0
 61 56  1  0  0  0
 62 18  1  0  0  0
 62 63  1  0  0  0
 63 64  1  0  0  0
 64 65  1  0  0  0
 65 66  1  0  0  0
 66 19  1  0  0  0
 67 19  1  0  0  0
 68 69  1  0  0  0
 69 34  1  0  0  0
 70 71  1  0  0  0
 71 21  1  0  0  0
 72 73  1  0  0  0
 72 67  1  0  0  0
 73 74  1  0  0  0
 74 30  1  0  0  0
 75 21  1  0  0  0
 75 76  1  0  0  0
 77 78  1  0  0  0
 79 80  1  0  0  0
 79 26  1  0  0  0
 80 22  1  0  0  0
 81 76  1  0  0  0
 39  1  2  0  0  0
 39  2  2  0  0  0
 40  7  2  0  0  0
 40  8  2  0  0  0
 41 11  2  0  0  0
 41 12  2  0  0  0
 42 15  2  0  0  0
 42 16  2  0  0  0
 43 23  2  0  0  0
 43 24  2  0  0  0
 44 27  2  0  0  0
 44 28  2  0  0  0
 45 31  2  0  0  0
 45 32  2  0  0  0
 46 35  2  0  0  0
 46 36  2  0  0  0
 48  4  2  0  0  0
 49 50  2  0  0  0
 51 52  2  0  0  0
 53 54  2  0  0  0
 55 47  2  0  0  0
 56 57  2  0  0  0
 58 59  2  0  0  0
 60 61  2  0  0  0
 67 68  2  0  0  0
 69 70  2  0  0  0
 71 72  2  0  0  0
 73 20  2  0  0  0
 74 75  2  0  0  0
 76 77  2  0  0  0
 78 79  2  0  0  0
 80 81  2  0  0  0
M  CHG  8   9  -1  13  -1  17  -1  25  -1  29  -1  33  -1  37  -1  38  -1
M  END
> <rmsd>
0.630533934

$$$$
CHEMBL3342190 PubChem-46837053


 49 56  0  0  0  0  0  0  0  0999 V2000
   -0.7616    2.1693  -18.7393 C   0  0  0  0  0
   -1.8870    2.5697  -18.0167 C   0  0  0  0  0
   -2.9574    1.6885  -17.7891 C   0  0  0  0  0
   -2.8734    0.3741  -18.3183 C   0  0  0  0  0
   -1.7406   -0.0152  -19.0547 C   0  0  0  0  0
   -0.6874    0.8765  -19.2563 C   0  0  0  0  0
   -1.6585   -1.4062  -19.6015 C   0  0  0  0  0
   -3.0055   -1.8344  -20.1951 C   0  0  0  0  0
   -3.9472   -0.6570  -18.1275 C   0  0  0  0  0
   -5.4787   -1.7754  -19.7483 C   0  0  0  0  0
   -7.5336   -2.5957  -20.7958 C   0  0  0  0  0
   -7.7257   -1.8610  -19.6191 C   0  0  0  0  0
   -9.0353   -1.5696  -19.0092 C   0  0  0  0  0
   -8.5773   -3.2772  -21.6230 C   0  0  0  0  0
   -8.9331   -4.6438  -21.0482 C   0  0  0  0  0
   -7.7725   -5.6179  -21.1740 C   0  0  0  0  0
   -6.4130   -6.6506  -22.9608 C   0  0  0  0  0
   -6.2443   -6.9089  -24.3245 C   0  0  0  0  0
   -5.1573   -7.6659  -24.7687 C   0  0  0  0  0
   -4.2315   -8.1668  -23.8498 C   0  0  0  0  0
   -4.3819   -7.9146  -22.4783 C   0  0  0  0  0
   -5.4787   -7.1557  -22.0432 C   0  0  0  0  0
   -1.6979   -9.5622  -20.7692 C   0  0  0  0  0
   -2.3080   -8.9322  -19.7046 C   0  0  0  0  0
   -3.3635   -8.2515  -20.2116 C   0  0  0  0  0
   -3.9227   -7.4491  -18.0923 C   0  0  0  0  0
   -2.0321   -8.8883  -18.3470 C   0  0  0  0  0
   -4.1260    2.1965  -17.0217 C   0  0  0  0  0
   -6.4425    1.7006  -16.0454 C   0  0  0  0  0
   -8.4605    1.3798  -15.1445 C   0  0  0  0  0
   -8.4316    2.7658  -15.1370 C   0  0  0  0  0
   -9.4922    3.5275  -14.6541 C   0  0  0  0  0
  -10.6170    2.8467  -14.1620 C   0  0  0  0  0
  -10.6575    1.4385  -14.1638 C   0  0  0  0  0
   -9.5736    0.6938  -14.6586 C   0  0  0  0  0
   -4.1447   -1.4223  -19.3601 N   0  0  0  0  0
   -6.5761   -1.4078  -19.0482 N   0  0  0  0  0
   -3.4240   -8.4394  -21.5414 N   0  0  0  0  0
   -2.4119   -9.2349  -21.8805 N   0  0  0  0  0
   -4.1833   -7.5017  -19.4342 N   0  0  0  0  0
   -2.8603   -8.1365  -17.5614 N   0  0  0  0  0
   -5.2018    1.3232  -16.6525 N   0  0  0  0  0
   -7.3555    0.7797  -15.6538 N   0  0  0  0  0
   -5.8828   -2.6811  -21.1101 S   0  0  0  0  0
   -6.9773    3.2922  -15.7861 S   0  0  0  0  0
  -10.1038   -1.9657  -19.5447 O   0  0  0  0  0
   -9.0978   -0.8413  -17.8284 O   0  0  0  0  0
   -7.5063   -5.8870  -22.5448 O   0  0  0  0  0
   -4.1563    3.4106  -16.6795 O   0  0  0  0  0
  2  3  1  0  0  0
  3 28  1  0  0  0
  4  5  1  0  0  0
  6  1  1  0  0  0
  7  5  1  0  0  0
  7  8  1  0  0  0
  8 36  1  0  0  0
  9 36  1  0  0  0
  9  4  1  0  0  0
 10 44  1  0  0  0
 11 44  1  0  0  0
 12 37  1  0  0  0
 12 13  1  0  0  0
 13 47  1  0  0  0
 14 11  1  0  0  0
 14 15  1  0  0  0
 15 16  1  0  0  0
 16 48  1  0  0  0
 17 48  1  0  0  0
 18 19  1  0  0  0
 20 21  1  0  0  0
 21 38  1  0  0  0
 22 17  1  0  0  0
 23 24  1  0  0  0
 25 40  1  0  0  0
 25 38  1  0  0  0
 26 41  1  0  0  0
 27 24  1  0  0  0
 28 42  1  0  0  0
 29 45  1  0  0  0
 30 43  1  0  0  0
 31 45  1  0  0  0
 31 32  1  0  0  0
 33 34  1  0  0  0
 35 30  1  0  0  0
 36 10  1  0  0  0
 38 39  1  0  0  0
 42 29  1  0  0  0
  1  2  2  0  0  0
  3  4  2  0  0  0
  5  6  2  0  0  0
 10 37  2  0  0  0
 11 12  2  0  0  0
 13 46  2  0  0  0
 17 18  2  0  0  0
 19 20  2  0  0  0
 21 22  2  0  0  0
 23 39  2  0  0  0
 24 25  2  0  0  0
 26 40  2  0  0  0
 27 41  2  0  0  0
 28 49  2  0  0  0
 29 43  2  0  0  0
 30 31  2  0  0  0
 32 33  2  0  0  0
 34 35  2  0  0  0
M  END
> <rmsd>
0.78472966

$$$$
CHEMBL3143413 PubChem-90663425


 70 78  0  0  0  0  0  0  0  0999 V2000
   -3.7489   -0.9737  -18.6919 N   0  0  0  0  0
   -3.5954    0.0195  -20.7348 N   0  0  0  0  0
   -2.6476    0.7749  -17.4409 N   0  0  0  0  0
   -1.9372    2.6167  -18.7710 N   0  0  0  0  0
   -2.3117    2.6882  -21.1653 N   0  0  0  0  0
   -8.7324   -3.2149  -21.5478 N   0  0  0  0  0
   -7.6237   -4.8265  -22.7075 N   0  0  0  0  0
   -8.5287   -4.2466  -19.3689 N   0  0  0  0  0
   -7.3628   -6.3216  -19.3859 N   0  0  0  0  0
   -6.4581   -7.2649  -21.4269 N   0  0  0  0  0
  -19.0509   -5.9531  -22.8026 N   0  0  0  0  0
  -20.0958   -7.0108  -21.0784 N   0  0  0  0  0
  -20.4937   -6.7765  -24.5573 N   0  0  0  0  0
  -22.2327   -8.2083  -23.7889 N   0  0  0  0  0
  -22.4926   -8.7620  -21.4431 N   0  0  0  0  0
   -4.0268   -1.0588  -20.0225 C   0  0  0  0  0
   -3.0316    0.7915  -19.7861 C   0  0  0  0  0
   -3.1244    0.2012  -18.5725 C   0  0  0  0  0
   -2.0458    1.9985  -17.5503 C   0  0  0  0  0
   -2.4234    2.0332  -19.9063 C   0  0  0  0  0
   -4.0738   -1.9037  -17.6164 C   0  0  0  0  0
   -5.5735   -2.0185  -17.4447 C   0  0  0  0  0
   -9.1277    0.0531  -18.3801 C   0  0  0  0  0
   -9.7445   -0.4823  -19.6634 C   0  0  0  0  0
   -9.5143   -2.0164  -21.2632 C   0  0  0  0  0
   -8.3019   -3.6462  -22.7593 C   0  0  0  0  0
   -7.6482   -5.1204  -21.3948 C   0  0  0  0  0
   -8.3062   -4.1626  -20.7035 C   0  0  0  0  0
   -8.0458   -5.3432  -18.7083 C   0  0  0  0  0
   -7.1507   -6.2333  -20.7320 C   0  0  0  0  0
  -10.8218   -2.3754  -20.5779 C   0  0  0  0  0
  -14.8413   -4.4884  -22.5222 C   0  0  0  0  0
  -15.9932   -4.4203  -23.5117 C   0  0  0  0  0
  -18.1232   -5.1369  -23.5797 C   0  0  0  0  0
  -19.0832   -6.1844  -21.4607 C   0  0  0  0  0
  -20.7032   -7.2911  -22.2466 C   0  0  0  0  0
  -20.0813   -6.6635  -23.2709 C   0  0  0  0  0
  -21.5849   -7.5611  -24.8116 C   0  0  0  0  0
  -21.8104   -8.0893  -22.4953 C   0  0  0  0  0
  -18.2433   -3.6832  -23.1929 C   0  0  0  0  0
  -16.8261   -3.1742  -23.2756 C   0  0  0  0  0
  -10.8527   -1.4626  -19.3745 C   0  0  0  0  0
   -5.7903   -3.4922  -17.1995 C   0  0  0  0  0
   -4.4006   -4.0843  -17.2522 C   0  0  0  0  0
   -4.4329   -5.3902  -18.0209 C   0  0  0  0  0
   -4.9454   -2.5227  -20.8415 Br  0  0  0  0  0
   -8.6248   -2.7127  -24.3940 Br  0  0  0  0  0
  -17.8391   -5.4493  -20.2079 Br  0  0  0  0  0
   -5.9878   -1.2326  -16.3635 O   0  0  0  0  0
   -7.5960    0.7709  -15.8981 O   0  0  0  0  0
   -8.3833   -0.9372  -17.7305 O   0  0  0  0  0
   -8.7820   -1.1343  -20.4498 O   0  0  0  0  0
  -11.8796   -2.1206  -21.4589 O   0  0  0  0  0
  -13.4522   -3.7434  -20.1274 O   0  0  0  0  0
  -14.0015   -3.3818  -22.6784 O   0  0  0  0  0
  -16.8023   -5.5609  -23.3616 O   0  0  0  0  0
  -16.6491   -2.2941  -24.3465 O   0  0  0  0  0
  -19.1000   -3.0220  -24.0781 O   0  0  0  0  0
  -11.8230   -4.8697  -21.8479 O   0  0  0  0  0
  -12.0732   -0.7920  -19.2476 O   0  0  0  0  0
   -6.2971    0.8461  -18.1641 O   0  0  0  0  0
   -3.5447   -3.1746  -17.8938 O   0  0  0  0  0
   -3.2006   -6.0366  -17.9083 O   0  0  0  0  0
   -2.3009   -8.4562  -17.4867 O   0  0  0  0  0
   -4.3849   -8.2649  -19.0537 O   0  0  0  0  0
   -4.5641   -7.8608  -16.3264 O   0  0  0  0  0
   -6.3625   -3.7433  -15.9494 O   0  0  0  0  0
   -7.0840   -0.1133  -17.0123 P   0  0  0  0  0
  -12.8086   -3.5410  -21.4835 P   0  0  0  0  0
   -3.5782   -7.6740  -17.6883 P   0  0  0  0  0
  1 16  1  0  0  0
  6 26  1  0  0  0
 11 35  1  0  0  0
 16 46  1  0  0  0
 17  2  1  0  0  0
 18  3  1  0  0  0
 18  1  1  0  0  0
 19  4  1  0  0  0
 20  5  1  0  0  0
 20 17  1  0  0  0
 21  1  1  0  0  0
 21 22  1  0  0  0
 21 62  1  0  0  0
 22 49  1  0  0  0
 22 43  1  0  0  0
 23 51  1  0  0  0
 24 23  1  0  0  0
 24 52  1  0  0  0
 25 52  1  0  0  0
 25  6  1  0  0  0
 25 31  1  0  0  0
 26 47  1  0  0  0
 27  7  1  0  0  0
 28  8  1  0  0  0
 28  6  1  0  0  0
 29  9  1  0  0  0
 30 10  1  0  0  0
 30 27  1  0  0  0
 31 53  1  0  0  0
 31 42  1  0  0  0
 32 55  1  0  0  0
 33 32  1  0  0  0
 33 56  1  0  0  0
 34 56  1  0  0  0
 34 11  1  0  0  0
 34 40  1  0  0  0
 35 48  1  0  0  0
 36 12  1  0  0  0
 37 13  1  0  0  0
 37 11  1  0  0  0
 38 14  1  0  0  0
 39 15  1  0  0  0
 39 36  1  0  0  0
 40 41  1  0  0  0
 40 58  1  0  0  0
 41 57  1  0  0  0
 41 33  1  0  0  0
 42 60  1  0  0  0
 42 24  1  0  0  0
 43 44  1  0  0  0
 43 67  1  0  0  0
 44 62  1  0  0  0
 44 45  1  0  0  0
 45 63  1  0  0  0
 68 49  1  0  0  0
 68 51  1  0  0  0
 68 61  1  0  0  0
 69 53  1  0  0  0
 69 55  1  0  0  0
 69 59  1  0  0  0
 70 63  1  0  0  0
 70 65  1  0  0  0
 70 66  1  0  0  0
 16  2  2  0  0  0
 17 18  2  0  0  0
 19  3  2  0  0  0
 20  4  2  0  0  0
 26  7  2  0  0  0
 27 28  2  0  0  0
 29  8  2  0  0  0
 30  9  2  0  0  0
 35 12  2  0  0  0
 36 37  2  0  0  0
 38 13  2  0  0  0
 39 14  2  0  0  0
 68 50  2  0  0  0
 69 54  2  0  0  0
 70 64  2  0  0  0
M  END
> <rmsd>
0.725105762

$$$$
CHEMBL3350624 CHEMBL3545954


 56 61  0  0  0  0  0  0  0  0999 V2000
   -3.9459   -8.8127  -16.0597 O   0  0  0  0  0
   -4.1555  -10.5442  -18.0064 O   0  0  0  0  0
   -2.1078   -8.6540  -17.9610 O   0  0  0  0  0
   -3.6453   -6.5445  -17.6585 O   0  0  0  0  0
   -2.0858   -6.5771  -19.7502 O   0  0  0  0  0
   -4.3322   -8.2236  -19.5914 O   0  0  0  0  0
   -6.3427   -7.6630  -21.1469 O   0  0  0  0  0
   -4.1501   -6.3386  -21.6257 O   0  0  0  0  0
   -7.6331   -5.0456  -21.1323 O   0  0  0  0  0
   -5.3676   -3.7487  -21.2983 O   0  0  0  0  0
   -7.1538   -3.3330  -19.2276 O   0  0  0  0  0
   -5.4441   -1.4590  -16.6748 O   0  0  0  0  0
   -0.5172    2.6342  -17.0939 O   0  0  0  0  0
   -8.3810   -0.5994  -18.4173 O   0  0  0  0  0
   -7.7791    0.9475  -16.4379 O   0  0  0  0  0
   -2.1518  -10.6976  -16.1046 O   0  0  0  0  0
   -2.3625  -13.4264  -15.5811 O   0  0  0  0  0
   -7.1812  -16.8638  -18.9380 O   0  0  0  0  0
   -0.3582  -15.8086  -15.8799 O   0  0  0  0  0
    0.6183  -13.9042  -17.3692 O   0  0  0  0  0
   -3.1202   -9.6447  -17.0143 P   0  0  0  0  0
   -3.0780   -7.4734  -18.7111 P   0  0  0  0  0
   -5.1662   -7.0153  -20.4533 P   0  0  0  0  0
   -6.5103   -4.4847  -20.2894 P   0  0  0  0  0
   -5.7580   -5.7726  -19.3569 N   0  0  0  0  0
   -4.4215    0.5938  -16.1845 N   0  0  0  0  0
   -3.6820    0.5594  -18.4889 N   0  0  0  0  0
   -1.6197    1.6870  -18.8539 N   0  0  0  0  0
   -2.6697    1.7613  -15.3562 N   0  0  0  0  0
   -2.8042    0.7290  -20.7318 N   0  0  0  0  0
   -3.7261  -15.0026  -16.6907 N   0  0  0  0  0
   -5.6816  -14.6425  -17.7295 N   0  0  0  0  0
   -3.6675  -17.4016  -17.0272 N   0  0  0  0  0
   -5.5298  -18.2676  -18.2278 N   0  0  0  0  0
   -3.7998  -19.7722  -17.4615 N   0  0  0  0  0
   -6.0532   -2.7929  -18.5565 C   0  0  0  0  0
   -6.5175   -1.7923  -17.5140 C   0  0  0  0  0
   -5.6790   -0.1412  -16.2387 C   0  0  0  0  0
   -3.5511    0.8433  -17.1687 C   0  0  0  0  0
   -2.6967    0.9861  -19.3374 C   0  0  0  0  0
   -1.5020    1.9780  -17.5237 C   0  0  0  0  0
   -2.5071    1.5410  -16.6732 C   0  0  0  0  0
   -3.8614    1.1572  -15.0852 C   0  0  0  0  0
   -6.6603    0.5449  -17.1713 C   0  0  0  0  0
   -7.0062   -0.5264  -18.1734 C   0  0  0  0  0
   -1.6620  -11.6348  -17.0165 C   0  0  0  0  0
   -1.2601  -12.9036  -16.2863 C   0  0  0  0  0
   -0.7762  -13.9224  -17.2837 C   0  0  0  0  0
   -1.2906  -15.2203  -16.7387 C   0  0  0  0  0
   -2.4940  -14.7871  -15.9312 C   0  0  0  0  0
   -4.6505  -14.0724  -17.0559 C   0  0  0  0  0
   -5.3935  -15.9560  -17.7802 C   0  0  0  0  0
   -4.2158  -16.1688  -17.1486 C   0  0  0  0  0
   -4.3369  -18.4602  -17.5774 C   0  0  0  0  0
   -6.0840  -17.0243  -18.3413 C   0  0  0  0  0
   -6.8488  -13.9547  -18.2571 C   0  0  0  0  0
 21  2  1  0  0  0
 21  3  1  0  0  0
 21 16  1  0  0  0
 22  3  1  0  0  0
 22  5  1  0  0  0
 22  6  1  0  0  0
 23  6  1  0  0  0
 23  8  1  0  0  0
 23 25  1  0  0  0
 24 25  1  0  0  0
 24 10  1  0  0  0
 24 11  1  0  0  0
 26 39  1  0  0  0
 28 41  1  0  0  0
 31 51  1  0  0  0
 32 52  1  0  0  0
 34 55  1  0  0  0
 36 11  1  0  0  0
 37 36  1  0  0  0
 37 12  1  0  0  0
 38 12  1  0  0  0
 38 26  1  0  0  0
 38 44  1  0  0  0
 39 27  1  0  0  0
 40 28  1  0  0  0
 40 30  1  0  0  0
 41 42  1  0  0  0
 42 29  1  0  0  0
 43 26  1  0  0  0
 44 45  1  0  0  0
 44 15  1  0  0  0
 45 14  1  0  0  0
 45 37  1  0  0  0
 46 16  1  0  0  0
 47 46  1  0  0  0
 47 48  1  0  0  0
 47 17  1  0  0  0
 48 49  1  0  0  0
 48 20  1  0  0  0
 49 50  1  0  0  0
 49 19  1  0  0  0
 50 17  1  0  0  0
 50 31  1  0  0  0
 53 33  1  0  0  0
 53 31  1  0  0  0
 54 34  1  0  0  0
 54 35  1  0  0  0
 55 52  1  0  0  0
 56 32  1  0  0  0
 21  1  2  0  0  0
 22  4  2  0  0  0
 23  7  2  0  0  0
 24  9  2  0  0  0
 40 27  2  0  0  0
 41 13  2  0  0  0
 42 39  2  0  0  0
 43 29  2  0  0  0
 51 32  2  0  0  0
 52 53  2  0  0  0
 54 33  2  0  0  0
 55 18  2  0  0  0
M  CHG  2   2  -1  32   1
M  END
> <rmsd>
0.665352821

$$$$
CHEMBL2414866 PubChem-73350701


 99107  0  0  0  0  0  0  0  0999 V2000
   -3.8572   -7.2103  -23.5270 P   0  0  0  0  0
   -4.6360   -7.7678  -20.9467 P   0  0  0  0  0
   -2.8885   -7.0838  -18.9337 P   0  0  0  0  0
   -7.4308   -0.5749  -17.6473 P   0  0  0  0  0
   -5.0747    1.1825  -10.0466 P   0  0  0  0  0
   -2.8787   -7.5937  -24.6167 O   0  0  0  0  0
   -3.3790   -7.9658  -22.0803 O   0  0  0  0  0
   -5.7847   -8.6801  -21.3154 O   0  0  0  0  0
   -4.0689   -8.2158  -19.4044 O   0  0  0  0  0
   -1.8353   -6.9184  -20.0065 O   0  0  0  0  0
   -3.6049   -5.5827  -18.6100 O   0  0  0  0  0
   -3.9993   -3.6298  -16.6549 O   0  0  0  0  0
   -6.6872   -1.9158  -16.9047 O   0  0  0  0  0
   -8.8346   -0.9597  -18.0570 O   0  0  0  0  0
   -7.5028    0.7210  -16.5549 O   0  0  0  0  0
   -7.1437    2.0595  -14.0086 O   0  0  0  0  0
   -5.3210    1.0684  -11.7248 O   0  0  0  0  0
   -3.7776    0.4759   -9.7117 O   0  0  0  0  0
   -6.3641    0.4894   -9.1808 O   0  0  0  0  0
   -6.7765    2.4239   -7.0960 O   0  0  0  0  0
  -10.2547    1.8072   -6.8614 O   0  0  0  0  0
   -8.6366    0.1619   -5.6346 O   0  0  0  0  0
   -7.2738   -1.5890   -4.9857 O   0  0  0  0  0
   -7.9112   -1.0320   -2.8412 O   0  0  0  0  0
   -4.9387    2.8175   -9.6304 O   0  0  0  0  0
   -6.0838   -1.1292  -12.9343 O   0  0  0  0  0
   -7.1002   -2.5306  -11.4045 O   0  0  0  0  0
   -9.3902   -2.3670  -11.6226 O   0  0  0  0  0
   -6.5797   -0.0662  -19.0204 O   0  0  0  0  0
   -7.2200   -4.2314  -18.0043 O   0  0  0  0  0
   -7.9397   -3.5155  -20.0790 O   0  0  0  0  0
   -8.2617   -4.7630  -21.9845 O   0  0  0  0  0
   -2.1301   -7.6518  -17.5315 O   0  0  0  0  0
   -5.1942   -6.1658  -20.9156 O   0  0  0  0  0
   -3.8259   -5.5303  -23.3311 O   0  0  0  0  0
   -5.4099   -7.7059  -23.9906 O   0  0  0  0  0
   -4.4726   -5.8151  -17.5367 C   0  0  0  0  0
   -5.0420   -4.5030  -17.0250 C   0  0  0  0  0
   -5.8798   -3.8363  -18.0865 C   0  0  0  0  0
   -5.7042   -2.3735  -17.7862 C   0  0  0  0  0
   -4.3713   -2.3351  -17.0739 C   0  0  0  0  0
   -2.8333   -2.3430  -19.0771 C   0  0  0  0  0
   -1.8926   -0.4529  -18.8993 C   0  0  0  0  0
   -2.7504   -0.5857  -17.8590 C   0  0  0  0  0
   -2.9126    0.4542  -16.9469 C   0  0  0  0  0
   -1.2892    1.6919  -18.1832 C   0  0  0  0  0
   -7.8026    0.1548  -15.3115 C   0  0  0  0  0
   -6.8552    0.7054  -14.2613 C   0  0  0  0  0
   -6.9964   -0.0685  -12.9789 C   0  0  0  0  0
   -6.7053    0.9654  -11.9317 C   0  0  0  0  0
   -7.1903    2.2316  -12.6114 C   0  0  0  0  0
   -9.4572    1.8318  -11.5321 C   0  0  0  0  0
  -10.4399    3.6635  -11.9238 C   0  0  0  0  0
   -9.1966    3.7429  -12.4523 C   0  0  0  0  0
   -8.7834    4.9097  -13.0920 C   0  0  0  0  0
  -10.9335    5.8356  -12.6328 C   0  0  0  0  0
   -5.8954    0.3212   -7.8692 C   0  0  0  0  0
   -6.7921    1.0354   -6.8642 C   0  0  0  0  0
   -8.2204    0.5130   -6.9274 C   0  0  0  0  0
   -8.9886    1.7000   -7.4458 C   0  0  0  0  0
   -8.1109    2.8482   -7.0314 C   0  0  0  0  0
   -8.0154    4.1144   -9.2132 C   0  0  0  0  0
   -8.7319    6.0219   -8.6350 C   0  0  0  0  0
   -8.7605    5.2210   -7.5440 C   0  0  0  0  0
   -9.1938    5.7212   -6.3203 C   0  0  0  0  0
   -9.5354    7.8259   -7.3859 C   0  0  0  0  0
   -8.5200   -1.2333   -5.5754 C   0  0  0  0  0
   -6.9903   -1.3738   -3.6332 C   0  0  0  0  0
   -5.5986   -1.6299   -3.1060 C   0  0  0  0  0
   -5.2090   -0.5542   -2.1010 C   0  0  0  0  0
   -4.5760   -1.6166   -4.2332 C   0  0  0  0  0
   -5.5542   -2.9838   -2.4223 C   0  0  0  0  0
   -6.8669   -2.2780  -12.7849 C   0  0  0  0  0
   -8.3943   -2.5449  -10.8682 C   0  0  0  0  0
   -8.6112   -2.8050   -9.4012 C   0  0  0  0  0
   -9.2460   -4.1684   -9.2102 C   0  0  0  0  0
   -7.3015   -2.7729   -8.6386 C   0  0  0  0  0
   -9.5333   -1.7562   -8.8202 C   0  0  0  0  0
   -7.5616   -4.6434  -19.2957 C   0  0  0  0  0
   -8.2741   -3.6316  -21.4302 C   0  0  0  0  0
   -8.5534   -2.3934  -22.2375 C   0  0  0  0  0
   -9.2680   -1.3553  -21.3894 C   0  0  0  0  0
   -7.2361   -1.8138  -22.7137 C   0  0  0  0  0
   -9.4257   -2.7064  -23.4423 C   0  0  0  0  0
   -3.3483   -1.7792  -17.9529 N   0  0  0  0  0
   -1.9167   -1.5422  -19.6886 N   0  0  0  0  0
   -2.1642    1.5819  -17.1289 N   0  0  0  0  0
   -1.1514    0.6686  -19.0835 N   0  0  0  0  0
   -3.8244    0.3629  -15.8578 N   0  0  0  0  0
   -8.5529    2.5915  -12.2071 N   0  0  0  0  0
  -10.6413    2.4739  -11.3344 N   0  0  0  0  0
   -9.6740    5.9421  -13.1689 N   0  0  0  0  0
  -11.3254    4.6869  -11.9979 N   0  0  0  0  0
   -7.4755    5.0432  -13.6419 N   0  0  0  0  0
   -8.3138    4.0072   -7.8926 N   0  0  0  0  0
   -8.2660    5.3618   -9.7083 N   0  0  0  0  0
   -9.5804    7.0263   -6.2695 N   0  0  0  0  0
   -9.1065    7.3233   -8.5828 N   0  0  0  0  0
   -9.2535    4.9071   -5.1521 N   0  0  0  0  0
  1  7  1  0  0  0
  1 35  1  0  0  0
  1 36  1  0  0  0
  2  7  1  0  0  0
  2  9  1  0  0  0
  2 34  1  0  0  0
  3  9  1  0  0  0
  3 11  1  0  0  0
  3 33  1  0  0  0
  4 13  1  0  0  0
  4 15  1  0  0  0
  4 29  1  0  0  0
  5 17  1  0  0  0
  5 19  1  0  0  0
  5 25  1  0  0  0
 37 11  1  0  0  0
 38 37  1  0  0  0
 38 39  1  0  0  0
 38 12  1  0  0  0
 39 40  1  0  0  0
 39 30  1  0  0  0
 40 41  1  0  0  0
 40 13  1  0  0  0
 41 12  1  0  0  0
 41 85  1  0  0  0
 43 86  1  0  0  0
 43 88  1  0  0  0
 44 45  1  0  0  0
 44 85  1  0  0  0
 45 89  1  0  0  0
 46 87  1  0  0  0
 47 15  1  0  0  0
 48 47  1  0  0  0
 48 49  1  0  0  0
 48 16  1  0  0  0
 49 50  1  0  0  0
 49 26  1  0  0  0
 50 51  1  0  0  0
 50 17  1  0  0  0
 51 16  1  0  0  0
 51 90  1  0  0  0
 53 91  1  0  0  0
 53 93  1  0  0  0
 54 55  1  0  0  0
 54 90  1  0  0  0
 55 94  1  0  0  0
 56 92  1  0  0  0
 57 19  1  0  0  0
 58 57  1  0  0  0
 58 59  1  0  0  0
 58 20  1  0  0  0
 59 60  1  0  0  0
 59 22  1  0  0  0
 60 61  1  0  0  0
 60 21  1  0  0  0
 61 20  1  0  0  0
 61 95  1  0  0  0
 63 96  1  0  0  0
 63 98  1  0  0  0
 64 65  1  0  0  0
 64 95  1  0  0  0
 65 99  1  0  0  0
 66 97  1  0  0  0
 67 22  1  0  0  0
 67 23  1  0  0  0
 68 23  1  0  0  0
 69 68  1  0  0  0
 69 70  1  0  0  0
 69 71  1  0  0  0
 69 72  1  0  0  0
 73 26  1  0  0  0
 73 27  1  0  0  0
 74 27  1  0  0  0
 75 74  1  0  0  0
 75 76  1  0  0  0
 75 77  1  0  0  0
 75 78  1  0  0  0
 79 30  1  0  0  0
 79 31  1  0  0  0
 80 31  1  0  0  0
 81 80  1  0  0  0
 81 82  1  0  0  0
 81 83  1  0  0  0
 81 84  1  0  0  0
 85 42  1  0  0  0
 90 52  1  0  0  0
 95 62  1  0  0  0
  1  6  2  0  0  0
  2  8  2  0  0  0
  3 10  2  0  0  0
  4 14  2  0  0  0
  5 18  2  0  0  0
 42 86  2  0  0  0
 43 44  2  0  0  0
 45 87  2  0  0  0
 46 88  2  0  0  0
 52 91  2  0  0  0
 53 54  2  0  0  0
 55 92  2  0  0  0
 56 93  2  0  0  0
 62 96  2  0  0  0
 63 64  2  0  0  0
 65 97  2  0  0  0
 66 98  2  0  0  0
 68 24  2  0  0  0
 74 28  2  0  0  0
 80 32  2  0  0  0
M  END
> <rmsd>
0.611440182

$$$$
CHEMBL2068746 CHEMBL2068751 PubChem-498277 PubChem-90661411


 30 31  0  0  0  0  0  0  0  0999 V2000
   -7.7286   -0.1931  -15.5015 N   0  0  0  0  0
   -7.9015   -0.1602  -16.7189 N   0  0  0  0  0
   -8.0749   -0.1275  -17.9391 N   0  0  0  0  0
   -3.7224    1.2640  -18.0775 N   0  0  0  0  0
   -0.0395    3.0264  -18.9225 N   0  0  0  0  0
   -1.9249    1.6718  -19.5597 N   0  0  0  0  0
   -6.9596   -0.0145  -18.8837 C   0  0  0  0  0
   -6.1387    1.2030  -18.5883 C   0  0  0  0  0
   -5.0096    0.6619  -17.7278 C   0  0  0  0  0
   -3.1091    2.0157  -17.1237 C   0  0  0  0  0
   -1.8784    2.6175  -17.3767 C   0  0  0  0  0
   -1.2951    2.4284  -18.6254 C   0  0  0  0  0
   -3.1255    1.0897  -19.3005 C   0  0  0  0  0
   -5.9373   -1.1337  -18.7358 C   0  0  0  0  0
   -6.5284   -2.4888  -18.3664 C   0  0  0  0  0
   -3.6761    0.3936  -20.1953 O   0  0  0  0  0
   -4.9514   -0.7454  -17.8122 O   0  0  0  0  0
   -7.3010   -2.9768  -19.4228 O   0  0  0  0  0
   -7.3057   -4.9884  -21.0774 O   0  0  0  0  0
   -6.5083   -5.5014  -18.6390 O   0  0  0  0  0
   -4.9471   -4.0128  -20.4381 O   0  0  0  0  0
   -2.7678   -5.1626  -21.2745 O   0  0  0  0  0
   -4.9549   -6.5535  -21.5769 O   0  0  0  0  0
   -3.7899   -6.1204  -19.0563 O   0  0  0  0  0
   -4.3855   -8.6087  -19.6871 O   0  0  0  0  0
   -1.9988   -7.7980  -20.4069 O   0  0  0  0  0
   -2.6439   -8.2749  -17.7782 O   0  0  0  0  0
   -6.5254   -4.3981  -19.9247 P   0  0  0  0  0
   -4.0870   -5.4711  -20.6032 P   0  0  0  0  0
   -3.2406   -7.7184  -19.2590 P   0  0  0  0  0
  4 10  1  0  0  0
  7  3  1  0  0  0
  7  8  1  0  0  0
  8  9  1  0  0  0
  9  4  1  0  0  0
  9 17  1  0  0  0
 11 12  1  0  0  0
 12  5  1  0  0  0
 13  6  1  0  0  0
 13  4  1  0  0  0
 14 17  1  0  0  0
 14 15  1  0  0  0
 14  7  1  0  0  0
 15 18  1  0  0  0
 28 18  1  0  0  0
 28 20  1  0  0  0
 28 21  1  0  0  0
 29 21  1  0  0  0
 29 23  1  0  0  0
 29 24  1  0  0  0
 30 24  1  0  0  0
 30 26  1  0  0  0
 30 27  1  0  0  0
  2  1  2  0  0  0
  2  3  2  0  0  0
 10 11  2  0  0  0
 12  6  2  0  0  0
 13 16  2  0  0  0
 28 19  2  0  0  0
 29 22  2  0  0  0
 30 25  2  0  0  0
M  CHG  2   1  -1   2   1
M  END
> <rmsd>
0.809984267

$$$$
CHEMBL4117626 PubChem-137629780


 84 90  0  0  0  0  0  0  0  0999 V2000
   -2.0403   -9.4877  -19.2804 O   0  0  0  0  0
   -2.6307   -7.6456  -17.5620 O   0  0  0  0  0
   -1.4433   -6.9748  -19.6002 O   0  0  0  0  0
   -3.9937   -7.6148  -19.7987 O   0  0  0  0  0
   -7.8492   -4.9436  -20.9840 O   0  0  0  0  0
  -12.4340   -6.9017  -24.9498 O   0  0  0  0  0
  -11.5868   -8.9871  -26.2594 O   0  0  0  0  0
  -14.7285  -11.1448  -25.0280 O   0  0  0  0  0
  -16.5941   -7.5938  -22.4868 O   0  0  0  0  0
  -17.9451   -5.8191  -21.1308 O   0  0  0  0  0
  -15.5017   -5.7207  -21.0063 O   0  0  0  0  0
  -16.6569   -4.9223  -23.1994 O   0  0  0  0  0
  -14.8318  -17.2126  -26.9969 O   0  0  0  0  0
  -13.3508  -18.2555  -25.0756 O   0  0  0  0  0
  -12.7898  -18.8278  -27.3969 O   0  0  0  0  0
  -14.9084  -19.8924  -26.3608 O   0  0  0  0  0
  -12.1173  -16.2115  -27.0303 O   0  0  0  0  0
  -10.3895  -14.7686  -28.3925 O   0  0  0  0  0
   -9.5957  -16.8381  -27.3457 O   0  0  0  0  0
  -10.0621  -14.8021  -25.8176 O   0  0  0  0  0
  -11.8058  -11.5356  -27.1648 O   0  0  0  0  0
  -10.7966  -11.9363  -29.5614 O   0  0  0  0  0
  -12.2009   -9.9594  -29.2177 O   0  0  0  0  0
  -13.3561  -12.2679  -29.3320 O   0  0  0  0  0
   -7.6288   -2.3847  -20.5230 O   0  0  0  0  0
   -3.9826   -2.9024  -18.9395 O   0  0  0  0  0
   -1.2032    2.4537  -16.8771 O   0  0  0  0  0
   -0.2986    4.9007  -16.5988 O   0  0  0  0  0
   -0.3191    3.9425  -18.8559 O   0  0  0  0  0
   -2.5744    4.7043  -17.8142 O   0  0  0  0  0
   -1.0689   -0.0860  -15.8093 O   0  0  0  0  0
   -1.2483   -2.7362  -15.7335 O   0  0  0  0  0
   -2.2095   -1.4351  -13.8790 O   0  0  0  0  0
    0.3887   -1.6183  -14.0379 O   0  0  0  0  0
   -6.3602   -0.1950  -19.5373 O   0  0  0  0  0
   -7.8373    1.7130  -18.5101 O   0  0  0  0  0
   -8.7257   -0.5738  -18.4525 O   0  0  0  0  0
   -6.7817    0.0399  -16.8290 O   0  0  0  0  0
   -2.4908   -7.8879  -19.0330 S   0  0  0  0  0
  -16.6716   -5.9929  -21.9085 S   0  0  0  0  0
  -13.9126  -18.5416  -26.4407 S   0  0  0  0  0
  -10.5046  -15.6571  -27.1883 S   0  0  0  0  0
  -12.0081  -11.4004  -28.8527 S   0  0  0  0  0
   -1.0651    4.0254  -17.5491 S   0  0  0  0  0
   -1.0742   -1.5128  -14.8654 S   0  0  0  0  0
   -7.4816    0.2657  -18.3380 S   0  0  0  0  0
   -4.6120   -6.3608  -19.8377 C   0  0  0  0  0
   -5.8900   -6.2560  -20.3859 C   0  0  0  0  0
   -6.5548   -5.0215  -20.4525 C   0  0  0  0  0
   -8.6106   -6.0926  -21.3435 C   0  0  0  0  0
  -10.0198   -5.6986  -21.6209 C   0  0  0  0  0
  -10.8299   -5.2375  -20.5804 C   0  0  0  0  0
  -12.1430   -4.8521  -20.8568 C   0  0  0  0  0
  -12.6356   -4.9443  -22.1582 C   0  0  0  0  0
  -11.7988   -5.4212  -23.1727 C   0  0  0  0  0
  -12.3116   -5.5374  -24.5668 C   0  0  0  0  0
  -13.4857   -7.7373  -24.5490 C   0  0  0  0  0
  -13.5519   -9.0748  -25.0125 C   0  0  0  0  0
  -12.5875   -9.6488  -25.8668 C   0  0  0  0  0
  -12.7323  -10.9787  -26.2854 C   0  0  0  0  0
  -13.8266  -11.7277  -25.8170 C   0  0  0  0  0
  -14.6387   -9.8866  -24.6178 C   0  0  0  0  0
  -15.6305   -9.3809  -23.7753 C   0  0  0  0  0
  -15.5769   -8.0640  -23.3221 C   0  0  0  0  0
  -14.5063   -7.2499  -23.7129 C   0  0  0  0  0
  -14.0400  -13.1452  -26.1847 C   0  0  0  0  0
  -12.9725  -14.0086  -26.4575 C   0  0  0  0  0
  -13.1925  -15.3677  -26.7405 C   0  0  0  0  0
  -14.5166  -15.8723  -26.7410 C   0  0  0  0  0
  -15.5815  -15.0004  -26.4873 C   0  0  0  0  0
  -15.3451  -13.6541  -26.2045 C   0  0  0  0  0
   -5.9051   -3.8571  -19.9726 C   0  0  0  0  0
   -6.4839   -2.5676  -20.0256 C   0  0  0  0  0
   -5.7805   -1.4680  -19.5156 C   0  0  0  0  0
   -4.4963   -1.6763  -18.9713 C   0  0  0  0  0
   -4.6137   -3.9704  -19.4104 C   0  0  0  0  0
   -3.9818   -5.2117  -19.3479 C   0  0  0  0  0
   -3.6859   -0.5767  -18.4180 C   0  0  0  0  0
   -2.8091   -0.8376  -17.3624 C   0  0  0  0  0
   -1.9695    0.1657  -16.8542 C   0  0  0  0  0
   -2.0148    1.4499  -17.4175 C   0  0  0  0  0
   -2.8770    1.7065  -18.4908 C   0  0  0  0  0
   -3.7035    0.6986  -18.9921 C   0  0  0  0  0
  -10.5154   -5.7756  -22.8863 N   0  0  0  0  0
 39  1  1  0  0  0
 39  4  1  0  0  0
 40  9  1  0  0  0
 40 12  1  0  0  0
 41 13  1  0  0  0
 41 16  1  0  0  0
 42 17  1  0  0  0
 42 20  1  0  0  0
 43 21  1  0  0  0
 43 24  1  0  0  0
 44 27  1  0  0  0
 44 30  1  0  0  0
 45 31  1  0  0  0
 45 34  1  0  0  0
 46 35  1  0  0  0
 46 38  1  0  0  0
 47  4  1  0  0  0
 48 49  1  0  0  0
 49  5  1  0  0  0
 50  5  1  0  0  0
 50 51  1  0  0  0
 51 84  1  0  0  0
 52 53  1  0  0  0
 54 55  1  0  0  0
 56 55  1  0  0  0
 56  6  1  0  0  0
 57  6  1  0  0  0
 58 59  1  0  0  0
 59 60  1  0  0  0
 60 21  1  0  0  0
 61  8  1  0  0  0
 61 66  1  0  0  0
 62  8  1  0  0  0
 62 58  1  0  0  0
 63 64  1  0  0  0
 64  9  1  0  0  0
 65 57  1  0  0  0
 67 68  1  0  0  0
 68 17  1  0  0  0
 69 70  1  0  0  0
 69 13  1  0  0  0
 71 66  1  0  0  0
 72 73  1  0  0  0
 73 74  1  0  0  0
 74 35  1  0  0  0
 75 26  1  0  0  0
 75 78  1  0  0  0
 76 26  1  0  0  0
 76 72  1  0  0  0
 77 47  1  0  0  0
 79 80  1  0  0  0
 80 31  1  0  0  0
 81 82  1  0  0  0
 81 27  1  0  0  0
 83 78  1  0  0  0
 39  2  2  0  0  0
 39  3  2  0  0  0
 40 10  2  0  0  0
 40 11  2  0  0  0
 41 14  2  0  0  0
 41 15  2  0  0  0
 42 18  2  0  0  0
 42 19  2  0  0  0
 43 22  2  0  0  0
 43 23  2  0  0  0
 44 28  2  0  0  0
 44 29  2  0  0  0
 45 32  2  0  0  0
 45 33  2  0  0  0
 46 36  2  0  0  0
 46 37  2  0  0  0
 47 48  2  0  0  0
 49 72  2  0  0  0
 51 52  2  0  0  0
 53 54  2  0  0  0
 55 84  2  0  0  0
 57 58  2  0  0  0
 59  7  2  0  0  0
 60 61  2  0  0  0
 62 63  2  0  0  0
 64 65  2  0  0  0
 66 67  2  0  0  0
 68 69  2  0  0  0
 70 71  2  0  0  0
 73 25  2  0  0  0
 74 75  2  0  0  0
 76 77  2  0  0  0
 78 79  2  0  0  0
 80 81  2  0  0  0
 82 83  2  0  0  0
M  END
> <rmsd>
0.78439182

$$$$
CHEMBL4796149 PubChem-162672435


 90100  0  0  0  0  0  0  0  0999 V2000
    1.3842   -8.9843  -16.0237 C   0  0  0  0  0
    0.6923   -8.1247  -16.8838 C   0  0  0  0  0
   -0.7643   -8.3025  -17.0445 C   0  0  0  0  0
   -2.7434   -8.3720  -18.1109 C   0  0  0  0  0
   -3.1675   -8.8979  -16.8911 C   0  0  0  0  0
   -3.6288   -8.1995  -19.2690 C   0  0  0  0  0
   -3.7352   -7.6586  -21.8045 C   0  0  0  0  0
   -4.8981   -6.7152  -21.8845 C   0  0  0  0  0
   -6.5557   -5.6897  -23.6171 C   0  0  0  0  0
   -6.6645   -5.2482  -24.8721 C   0  0  0  0  0
   -5.5232   -5.2469  -25.8308 C   0  0  0  0  0
   -7.7745   -5.6802  -22.7822 C   0  0  0  0  0
   -9.0610   -5.3551  -20.9650 C   0  0  0  0  0
  -10.0763   -5.7144  -21.8494 C   0  0  0  0  0
   -9.3093   -5.0730  -19.5451 C   0  0  0  0  0
   -8.1485   -2.8199  -19.2819 C   0  0  0  0  0
   -6.9295   -2.8388  -20.1512 C   0  0  0  0  0
   -5.2211   -2.4666  -21.9003 C   0  0  0  0  0
   -4.7588   -3.0047  -20.6971 C   0  0  0  0  0
   -3.3353   -3.2195  -20.4253 C   0  0  0  0  0
   -1.6881   -3.4295  -18.5418 C   0  0  0  0  0
   -0.6277   -4.4482  -18.8263 C   0  0  0  0  0
    0.7989   -6.1406  -18.4501 C   0  0  0  0  0
    1.4360   -7.2012  -17.6518 C   0  0  0  0  0
    3.4858   -8.0488  -16.7615 C   0  0  0  0  0
    2.7764   -8.9497  -15.9442 C   0  0  0  0  0
    4.9597   -7.9714  -16.7706 C   0  0  0  0  0
    7.3570   -7.5006  -17.2178 C   0  0  0  0  0
    7.0862   -8.3129  -16.1157 C   0  0  0  0  0
    8.1541   -8.8504  -15.2632 C   0  0  0  0  0
   10.6411   -9.1229  -14.8333 C   0  0  0  0  0
   11.0726   -8.1093  -13.8220 C   0  0  0  0  0
   11.7882   -9.4441  -15.7721 C   0  0  0  0  0
   10.9324  -10.7111  -17.7969 C   0  0  0  0  0
   10.6307  -11.9446  -18.3833 C   0  0  0  0  0
   10.0442  -12.0009  -19.6529 C   0  0  0  0  0
    9.7489  -10.8217  -20.3374 C   0  0  0  0  0
   10.0499   -9.5846  -19.7588 C   0  0  0  0  0
   10.6434   -9.5282  -18.4936 C   0  0  0  0  0
    9.1160  -10.8843  -21.6824 C   0  0  0  0  0
    1.3036   -5.7376  -19.6869 C   0  0  0  0  0
   -1.9375   -3.2288  -17.0521 C   0  0  0  0  0
   -0.3791   -1.0302  -17.4492 C   0  0  0  0  0
   -1.2213    0.1796  -17.5528 C   0  0  0  0  0
   -2.5175    0.3714  -17.0620 C   0  0  0  0  0
   -2.8938    1.6285  -17.4949 C   0  0  0  0  0
   -1.8231    2.1382  -18.1865 C   0  0  0  0  0
   -1.8576    3.4060  -18.7618 C   0  0  0  0  0
   -3.0412    4.1549  -18.6293 C   0  0  0  0  0
   -4.1522    3.6285  -17.9419 C   0  0  0  0  0
   -4.0898    2.3497  -17.3627 C   0  0  0  0  0
   -5.3090    1.7653  -16.7388 C   0  0  0  0  0
   -7.2110    0.3527  -17.4167 C   0  0  0  0  0
   -7.8733   -0.4541  -18.4792 C   0  0  0  0  0
   -7.9161   -1.9197  -18.0756 C   0  0  0  0  0
   -3.3520   -0.5831  -16.2756 C   0  0  0  0  0
   -4.0421   -9.0449  -22.3828 C   0  0  0  0  0
   -2.7886   -9.8972  -22.4528 C   0  0  0  0  0
   -1.4245   -8.0521  -18.1917 N   0  0  0  0  0
   -3.0814   -7.6915  -20.4937 N   0  0  0  0  0
   -5.2999   -6.2443  -23.1790 N   0  0  0  0  0
   -7.8033   -5.3399  -21.4821 N   0  0  0  0  0
   -8.4921   -4.1591  -18.8103 N   0  0  0  0  0
   -2.9425   -3.7827  -19.1764 N   0  0  0  0  0
   -0.2505   -5.4194  -17.9704 N   0  0  0  0  0
    2.7932   -7.2074  -17.5734 N   0  0  0  0  0
    5.7694   -8.5725  -15.8748 N   0  0  0  0  0
    9.5194   -8.6217  -15.6135 N   0  0  0  0  0
   11.5791   -8.5397  -12.5651 N   0  0  0  0  0
   11.4972  -10.6801  -16.4823 N   0  0  0  0  0
   -0.8006    1.2689  -18.2411 N   0  0  0  0  0
   -5.7000   -3.1984  -19.7318 N   0  0  0  0  0
   -1.8040   -8.9568  -15.9002 S   0  0  0  0  0
   -9.3321   -5.9864  -23.3341 S   0  0  0  0  0
   -6.8788   -2.2458  -21.7160 S   0  0  0  0  0
    5.8659   -7.1084  -17.8909 S   0  0  0  0  0
    0.3519   -4.4404  -20.1837 S   0  0  0  0  0
   -0.6169   -2.2907  -16.1949 S   0  0  0  0  0
   -4.8498   -8.4979  -19.1840 O   0  0  0  0  0
   -5.4920   -6.3485  -20.8396 O   0  0  0  0  0
  -10.2381   -5.6759  -18.9442 O   0  0  0  0  0
   -2.4640   -2.8216  -21.2464 O   0  0  0  0  0
    3.4290   -9.8115  -15.0699 O   0  0  0  0  0
    7.8645   -9.5215  -14.2370 O   0  0  0  0  0
   11.0300   -6.8737  -14.0878 O   0  0  0  0  0
    0.5776   -1.1760  -18.2522 O   0  0  0  0  0
   -6.0079    0.9923  -17.7061 O   0  0  0  0  0
   -7.7316    0.4434  -16.2689 O   0  0  0  0  0
   -9.1638    0.0201  -18.7102 O   0  0  0  0  0
   -5.0259   -9.7026  -21.6458 O   0  0  0  0  0
  2  3  1  0  0  0
  3 73  1  0  0  0
  4 59  1  0  0  0
  4  6  1  0  0  0
  5 73  1  0  0  0
  6 60  1  0  0  0
  7 60  1  0  0  0
  7  8  1  0  0  0
  7 57  1  0  0  0
  8 61  1  0  0  0
  9 12  1  0  0  0
 11 10  1  0  0  0
 12 74  1  0  0  0
 13 62  1  0  0  0
 13 15  1  0  0  0
 14 74  1  0  0  0
 15 63  1  0  0  0
 16 63  1  0  0  0
 16 17  1  0  0  0
 16 55  1  0  0  0
 17 75  1  0  0  0
 18 75  1  0  0  0
 19 20  1  0  0  0
 19 72  1  0  0  0
 20 64  1  0  0  0
 21 64  1  0  0  0
 21 22  1  0  0  0
 21 42  1  0  0  0
 22 77  1  0  0  0
 23 65  1  0  0  0
 23 24  1  0  0  0
 24  2  1  0  0  0
 25 66  1  0  0  0
 25 27  1  0  0  0
 26 83  1  0  0  0
 26  1  1  0  0  0
 27 76  1  0  0  0
 28 76  1  0  0  0
 29 67  1  0  0  0
 29 30  1  0  0  0
 30 68  1  0  0  0
 31 68  1  0  0  0
 31 32  1  0  0  0
 31 33  1  0  0  0
 32 69  1  0  0  0
 33 70  1  0  0  0
 35 36  1  0  0  0
 37 38  1  0  0  0
 39 34  1  0  0  0
 40 37  1  0  0  0
 41 77  1  0  0  0
 42 78  1  0  0  0
 43 78  1  0  0  0
 43 44  1  0  0  0
 45 46  1  0  0  0
 47 71  1  0  0  0
 47 48  1  0  0  0
 49 50  1  0  0  0
 51 46  1  0  0  0
 52 51  1  0  0  0
 52 87  1  0  0  0
 53 87  1  0  0  0
 54 53  1  0  0  0
 54 55  1  0  0  0
 54 89  1  0  0  0
 56 45  1  0  0  0
 57 58  1  0  0  0
 57 90  1  0  0  0
 61  9  1  0  0  0
 70 34  1  0  0  0
 71 44  1  0  0  0
  1  2  2  0  0  0
  3 59  2  0  0  0
  4  5  2  0  0  0
  6 79  2  0  0  0
  8 80  2  0  0  0
  9 10  2  0  0  0
 12 62  2  0  0  0
 13 14  2  0  0  0
 15 81  2  0  0  0
 17 72  2  0  0  0
 18 19  2  0  0  0
 20 82  2  0  0  0
 22 65  2  0  0  0
 23 41  2  0  0  0
 24 66  2  0  0  0
 25 26  2  0  0  0
 27 67  2  0  0  0
 28 29  2  0  0  0
 30 84  2  0  0  0
 32 85  2  0  0  0
 34 35  2  0  0  0
 36 37  2  0  0  0
 38 39  2  0  0  0
 43 86  2  0  0  0
 44 45  2  0  0  0
 46 47  2  0  0  0
 48 49  2  0  0  0
 50 51  2  0  0  0
 53 88  2  0  0  0
M  END
> <rmsd>
0.664334893

$$$$
CHEMBL2057250 PubChem-70684200


 92103  0  0  0  0  0  0  0  0999 V2000
    4.4189  -22.1961  -22.0526 P   0  0  0  0  0
   -0.6196  -16.6470  -18.0477 P   0  0  0  0  0
   -3.5810   -8.7992  -17.8240 P   0  0  0  0  0
   -3.2633   -2.8260  -22.6274 P   0  0  0  0  0
    5.6485  -22.1717  -22.9359 O   0  0  0  0  0
    3.3440  -23.3798  -22.6067 O   0  0  0  0  0
    4.8725  -22.5501  -20.4612 O   0  0  0  0  0
    4.4430  -19.5868  -21.6107 O   0  0  0  0  0
    3.2638  -15.7830  -19.2641 O   0  0  0  0  0
    0.7061  -16.0604  -18.9438 O   0  0  0  0  0
   -0.4109  -18.0851  -17.6139 O   0  0  0  0  0
   -3.0881  -15.7709  -18.3988 O   0  0  0  0  0
   -5.0448  -11.9249  -19.4041 O   0  0  0  0  0
   -3.8407  -10.4648  -17.6059 O   0  0  0  0  0
   -4.2869   -8.0612  -16.7130 O   0  0  0  0  0
   -4.2408   -8.2958  -19.3053 O   0  0  0  0  0
   -1.4342   -5.8701  -20.6868 O   0  0  0  0  0
   -2.7400   -4.4289  -22.4055 O   0  0  0  0  0
   -2.1962   -2.0790  -23.3954 O   0  0  0  0  0
   -4.6817   -2.4871  -20.4208 O   0  0  0  0  0
   -8.5306   -0.9919  -18.3160 O   0  0  0  0  0
   -7.5710    0.7931  -16.7007 O   0  0  0  0  0
   -5.4851   -1.7789  -17.8259 O   0  0  0  0  0
   -4.6887   -2.8249  -23.5400 O   0  0  0  0  0
   -4.5286   -7.1526  -21.8032 O   0  0  0  0  0
   -1.9240   -8.4427  -17.7391 O   0  0  0  0  0
   -2.3724  -13.2116  -17.5267 O   0  0  0  0  0
   -0.8003  -15.6954  -16.6633 O   0  0  0  0  0
    2.3119  -17.6492  -21.6468 O   0  0  0  0  0
    3.5915  -20.5772  -22.1065 C   0  0  0  0  0
    3.8099  -19.1108  -20.4635 C   0  0  0  0  0
    3.3391  -17.6780  -20.6801 C   0  0  0  0  0
    2.8318  -17.1059  -19.3757 C   0  0  0  0  0
    1.3376  -17.1743  -19.5149 C   0  0  0  0  0
   -2.1242  -16.5342  -19.0578 C   0  0  0  0  0
   -3.2793  -14.6533  -19.2148 C   0  0  0  0  0
   -3.4925  -13.4157  -18.3561 C   0  0  0  0  0
   -3.6868  -12.2059  -19.2399 C   0  0  0  0  0
   -2.9776  -11.1094  -18.5008 C   0  0  0  0  0
   -3.2350   -8.4654  -20.2608 C   0  0  0  0  0
   -3.2447   -7.3207  -21.2618 C   0  0  0  0  0
   -2.8198   -6.0294  -20.6081 C   0  0  0  0  0
   -3.5524   -4.9860  -21.4077 C   0  0  0  0  0
   -3.5573   -1.9564  -21.0515 C   0  0  0  0  0
   -5.5209   -1.3992  -20.1975 C   0  0  0  0  0
   -6.3427   -1.6376  -18.9387 C   0  0  0  0  0
   -7.2937   -0.4821  -18.7184 C   0  0  0  0  0
   -6.6390    0.3012  -17.6170 C   0  0  0  0  0
   -5.7233   -0.7000  -16.9531 C   0  0  0  0  0
   -3.9494    0.0461  -15.3343 C   0  0  0  0  0
   -2.4995    0.9080  -16.6278 C   0  0  0  0  0
   -1.4059    1.5069  -17.2385 C   0  0  0  0  0
   -2.5039    1.2179  -19.3371 C   0  0  0  0  0
   -3.5341    0.4769  -17.3805 C   0  0  0  0  0
   -4.6853   -5.7727  -22.0529 C   0  0  0  0  0
   -7.0005   -4.7956  -22.2715 C   0  0  0  0  0
   -7.6660   -4.7608  -20.2564 C   0  0  0  0  0
   -8.3343   -4.6109  -19.0499 C   0  0  0  0  0
   -6.4213   -5.5284  -17.9592 C   0  0  0  0  0
   -6.4212   -5.2853  -20.2799 C   0  0  0  0  0
   -1.9413  -11.8820  -17.7042 C   0  0  0  0  0
   -0.2636  -11.3110  -19.5349 C   0  0  0  0  0
    1.5094  -12.1771  -18.7507 C   0  0  0  0  0
    2.7838  -12.6488  -18.4737 C   0  0  0  0  0
    1.9324  -13.5567  -16.4398 C   0  0  0  0  0
    0.5046  -12.4007  -17.8763 C   0  0  0  0  0
    1.1315  -17.2095  -21.0119 C   0  0  0  0  0
   -1.1089  -17.7639  -22.0111 C   0  0  0  0  0
   -1.2932  -19.8362  -21.5771 C   0  0  0  0  0
   -1.6612  -21.1654  -21.4220 C   0  0  0  0  0
    0.4057  -21.5316  -20.2959 C   0  0  0  0  0
   -0.1101  -19.4031  -21.0971 C   0  0  0  0  0
   -4.4600   -0.0716  -16.5848 N   0  0  0  0  0
   -2.7284    0.6530  -15.3250 N   0  0  0  0  0
   -0.2903    1.9588  -16.4828 N   0  0  0  0  0
   -1.4317    1.6510  -18.5964 N   0  0  0  0  0
   -3.5736    0.6244  -18.7289 N   0  0  0  0  0
   -5.9762   -5.3137  -21.5439 N   0  0  0  0  0
   -8.0675   -4.4358  -21.4997 N   0  0  0  0  0
   -9.6495   -4.0678  -18.9882 N   0  0  0  0  0
   -7.6889   -5.0039  -17.9132 N   0  0  0  0  0
   -5.7707   -5.6728  -19.1540 N   0  0  0  0  0
   -0.6292  -11.8698  -18.3477 N   0  0  0  0  0
    1.0603  -11.4857  -19.8117 N   0  0  0  0  0
    3.8675  -12.4358  -19.3722 N   0  0  0  0  0
    2.9729  -13.3343  -17.3087 N   0  0  0  0  0
    0.6785  -13.0835  -16.7195 N   0  0  0  0  0
    0.0246  -18.0958  -21.3508 N   0  0  0  0  0
   -1.9515  -18.8245  -22.1668 N   0  0  0  0  0
   -2.9005  -21.6539  -21.9187 N   0  0  0  0  0
   -0.7895  -21.9963  -20.7788 N   0  0  0  0  0
    0.7564  -20.2197  -20.4508 N   0  0  0  0  0
  1  6  1  0  0  0
  1  7  1  0  0  0
  1 30  1  0  0  0
  2 10  1  0  0  0
  2 35  1  0  0  0
  2 28  1  0  0  0
  3 14  1  0  0  0
  3 16  1  0  0  0
  3 26  1  0  0  0
  4 18  1  0  0  0
  4 44  1  0  0  0
  4 24  1  0  0  0
 30  8  1  0  0  0
 31  8  1  0  0  0
 32 31  1  0  0  0
 32 33  1  0  0  0
 32 29  1  0  0  0
 33  9  1  0  0  0
 33 34  1  0  0  0
 34 10  1  0  0  0
 34 67  1  0  0  0
 35 12  1  0  0  0
 36 12  1  0  0  0
 37 36  1  0  0  0
 37 38  1  0  0  0
 37 27  1  0  0  0
 38 13  1  0  0  0
 38 39  1  0  0  0
 39 14  1  0  0  0
 39 61  1  0  0  0
 40 16  1  0  0  0
 41 40  1  0  0  0
 41 42  1  0  0  0
 41 25  1  0  0  0
 42 17  1  0  0  0
 42 43  1  0  0  0
 43 18  1  0  0  0
 43 55  1  0  0  0
 44 20  1  0  0  0
 45 20  1  0  0  0
 46 45  1  0  0  0
 46 47  1  0  0  0
 46 23  1  0  0  0
 47 21  1  0  0  0
 47 48  1  0  0  0
 48 22  1  0  0  0
 48 49  1  0  0  0
 49 23  1  0  0  0
 49 73  1  0  0  0
 51 74  1  0  0  0
 52 75  1  0  0  0
 52 76  1  0  0  0
 53 77  1  0  0  0
 54 73  1  0  0  0
 54 51  1  0  0  0
 55 25  1  0  0  0
 55 78  1  0  0  0
 57 79  1  0  0  0
 58 80  1  0  0  0
 58 81  1  0  0  0
 59 82  1  0  0  0
 60 78  1  0  0  0
 60 57  1  0  0  0
 61 27  1  0  0  0
 61 83  1  0  0  0
 63 84  1  0  0  0
 64 85  1  0  0  0
 64 86  1  0  0  0
 65 87  1  0  0  0
 66 83  1  0  0  0
 66 63  1  0  0  0
 67 29  1  0  0  0
 67 88  1  0  0  0
 69 89  1  0  0  0
 70 90  1  0  0  0
 70 91  1  0  0  0
 71 92  1  0  0  0
 72 88  1  0  0  0
 72 69  1  0  0  0
 73 50  1  0  0  0
 78 56  1  0  0  0
 83 62  1  0  0  0
 88 68  1  0  0  0
  1  5  2  0  0  0
  2 11  2  0  0  0
  3 15  2  0  0  0
  4 19  2  0  0  0
 50 74  2  0  0  0
 51 52  2  0  0  0
 53 76  2  0  0  0
 54 77  2  0  0  0
 56 79  2  0  0  0
 57 58  2  0  0  0
 59 81  2  0  0  0
 60 82  2  0  0  0
 62 84  2  0  0  0
 63 64  2  0  0  0
 65 86  2  0  0  0
 66 87  2  0  0  0
 68 89  2  0  0  0
 69 70  2  0  0  0
 71 91  2  0  0  0
 72 92  2  0  0  0
M  END
> <rmsd>
0.656566322

$$$$
CHEMBL374267 PubChem-44413910


 93104  0  0  0  0  0  0  0  0999 V2000
   -3.1250  -18.5892  -22.7840 N   0  0  0  0  0
   -4.5245  -18.3953  -20.8644 N   0  0  0  0  0
   -3.8941  -17.9464  -24.9911 N   0  0  0  0  0
   -6.4372  -17.2611  -23.5657 N   0  0  0  0  0
   -6.7206  -17.5052  -21.3322 N   0  0  0  0  0
   -2.4575  -12.8803  -19.0940 N   0  0  0  0  0
   -3.2582  -14.4589  -20.7495 N   0  0  0  0  0
   -1.5285  -15.4463  -22.0491 N   0  0  0  0  0
   -0.2586  -13.0590  -19.5882 N   0  0  0  0  0
    0.8086  -14.9010  -21.7034 N   0  0  0  0  0
   -7.7598   -5.2940  -18.7369 N   0  0  0  0  0
   -5.4873   -4.8961  -18.0168 N   0  0  0  0  0
   -5.3120   -3.5657  -16.0530 N   0  0  0  0  0
   -8.7713   -4.1324  -17.0752 N   0  0  0  0  0
   -7.2768   -2.7060  -14.9128 N   0  0  0  0  0
   -3.8970    0.6565  -18.1511 N   0  0  0  0  0
   -1.9947   -0.4285  -17.1292 N   0  0  0  0  0
   -0.0009    0.8655  -17.1809 N   0  0  0  0  0
   -2.8317    2.5541  -18.7784 N   0  0  0  0  0
    0.0541    3.0834  -18.1718 N   0  0  0  0  0
   -3.3287  -18.7377  -21.4326 C   0  0  0  0  0
   -5.4857  -17.8944  -21.6722 C   0  0  0  0  0
   -5.3131  -17.7403  -23.0029 C   0  0  0  0  0
   -4.1074  -18.0963  -23.5934 C   0  0  0  0  0
   -7.2953  -17.1424  -22.5107 C   0  0  0  0  0
   -7.3623  -17.6821  -20.0327 C   0  0  0  0  0
   -8.3094  -16.5309  -19.7108 C   0  0  0  0  0
   -6.7360  -13.8727  -19.6338 C   0  0  0  0  0
   -5.8706  -12.8234  -18.9364 C   0  0  0  0  0
   -5.5216  -11.6399  -19.8311 C   0  0  0  0  0
   -4.2173  -11.1734  -19.2442 C   0  0  0  0  0
   -3.6958  -12.3913  -18.4950 C   0  0  0  0  0
   -2.2978  -13.7851  -20.0652 C   0  0  0  0  0
   -2.8583  -15.3000  -21.7480 C   0  0  0  0  0
   -0.5693  -14.7514  -21.3679 C   0  0  0  0  0
   -0.9837  -13.8943  -20.3559 C   0  0  0  0  0
   -1.2049  -12.4398  -18.8258 C   0  0  0  0  0
   -4.7096   -8.1026  -20.5446 C   0  0  0  0  0
   -5.9918   -7.3453  -20.8718 C   0  0  0  0  0
   -5.7691   -5.9896  -21.5222 C   0  0  0  0  0
   -6.9319   -5.1843  -21.0332 C   0  0  0  0  0
   -7.5804   -6.0544  -19.9678 C   0  0  0  0  0
   -6.8322   -4.7872  -17.9174 C   0  0  0  0  0
   -4.7238   -4.2725  -17.0692 C   0  0  0  0  0
   -6.6697   -3.4612  -15.9600 C   0  0  0  0  0
   -7.4350   -4.1019  -16.9246 C   0  0  0  0  0
   -8.9357   -4.8759  -18.2108 C   0  0  0  0  0
   -6.6242   -2.0858  -20.5311 C   0  0  0  0  0
   -6.3149   -1.6547  -19.1057 C   0  0  0  0  0
   -7.1958   -0.5030  -18.6814 C   0  0  0  0  0
   -6.3001    0.2947  -17.7666 C   0  0  0  0  0
   -4.9363   -0.3466  -17.9423 C   0  0  0  0  0
   -2.6156    0.5903  -17.7694 C   0  0  0  0  0
   -0.6680   -0.2847  -16.8345 C   0  0  0  0  0
   -0.6402    1.8934  -17.8223 C   0  0  0  0  0
   -1.9819    1.7268  -18.1325 C   0  0  0  0  0
   -4.0024    1.8574  -18.7840 C   0  0  0  0  0
   -9.6690  -17.1349  -19.9028 C   0  0  0  0  0
   -9.3944  -18.6222  -19.7033 C   0  0  0  0  0
  -10.3499  -19.5436  -20.4605 C   0  0  0  0  0
   -8.1273  -16.1768  -18.3675 O   0  0  0  0  0
   -8.1661  -14.0226  -16.8869 O   0  0  0  0  0
   -8.0932  -13.5637  -19.4685 O   0  0  0  0  0
   -4.6727  -13.4096  -18.4760 O   0  0  0  0  0
   -4.4694  -10.1494  -18.3300 O   0  0  0  0  0
   -2.7646   -8.4533  -17.3249 O   0  0  0  0  0
   -4.1241   -7.5947  -19.3787 O   0  0  0  0  0
   -6.7889   -7.1886  -19.7245 O   0  0  0  0  0
   -7.8394   -4.9596  -22.0715 O   0  0  0  0  0
   -9.4315   -3.0120  -22.7273 O   0  0  0  0  0
   -7.9355   -2.5497  -20.6384 O   0  0  0  0  0
   -4.9803   -1.2338  -19.0281 O   0  0  0  0  0
   -6.6972    0.2078  -16.4290 O   0  0  0  0  0
   -7.8090    1.7880  -14.6711 O   0  0  0  0  0
   -7.7270    2.7035  -17.1242 O   0  0  0  0  0
   -5.4539    2.5185  -15.5463 O   0  0  0  0  0
   -8.3312   -0.9865  -18.0197 O   0  0  0  0  0
   -6.9127   -2.6310  -23.2514 O   0  0  0  0  0
   -4.5932   -5.3820  -21.0813 O   0  0  0  0  0
   -2.0650   -9.4324  -19.6441 O   0  0  0  0  0
   -5.3005  -12.0478  -21.1500 O   0  0  0  0  0
  -10.3488  -14.5433  -18.2106 O   0  0  0  0  0
  -10.1085  -16.8511  -21.1988 O   0  0  0  0  0
   -8.0552  -18.9076  -20.0255 O   0  0  0  0  0
  -10.0616  -19.5306  -21.8282 O   0  0  0  0  0
  -10.5783  -20.9690  -23.9544 O   0  0  0  0  0
  -12.4909  -20.8383  -22.1744 O   0  0  0  0  0
  -10.1789  -22.2949  -21.7275 O   0  0  0  0  0
   -8.6544  -14.5643  -18.2066 P   0  0  0  0  0
   -3.3390   -8.9109  -18.6508 P   0  0  0  0  0
   -8.0518   -3.2787  -22.1728 P   0  0  0  0  0
   -6.9461    1.8014  -15.9163 P   0  0  0  0  0
  -10.8203  -20.9108  -22.4612 P   0  0  0  0  0
  5 22  1  0  0  0
  6 33  1  0  0  0
 11 43  1  0  0  0
 16 53  1  0  0  0
 21  2  1  0  0  0
 22 23  1  0  0  0
 23  4  1  0  0  0
 24  3  1  0  0  0
 24  1  1  0  0  0
 25  5  1  0  0  0
 26  5  1  0  0  0
 26 27  1  0  0  0
 26 84  1  0  0  0
 27 61  1  0  0  0
 27 58  1  0  0  0
 28 63  1  0  0  0
 29 28  1  0  0  0
 29 30  1  0  0  0
 29 64  1  0  0  0
 30 31  1  0  0  0
 30 81  1  0  0  0
 31 32  1  0  0  0
 31 65  1  0  0  0
 32  6  1  0  0  0
 32 64  1  0  0  0
 34  7  1  0  0  0
 35  8  1  0  0  0
 35 10  1  0  0  0
 36  9  1  0  0  0
 36 33  1  0  0  0
 37  6  1  0  0  0
 38 67  1  0  0  0
 39 38  1  0  0  0
 39 40  1  0  0  0
 39 68  1  0  0  0
 40 41  1  0  0  0
 40 79  1  0  0  0
 41 42  1  0  0  0
 41 69  1  0  0  0
 42 11  1  0  0  0
 42 68  1  0  0  0
 44 12  1  0  0  0
 45 13  1  0  0  0
 45 15  1  0  0  0
 46 14  1  0  0  0
 46 43  1  0  0  0
 47 11  1  0  0  0
 48 71  1  0  0  0
 49 48  1  0  0  0
 49 50  1  0  0  0
 49 72  1  0  0  0
 50 51  1  0  0  0
 50 77  1  0  0  0
 51 52  1  0  0  0
 51 73  1  0  0  0
 52 16  1  0  0  0
 52 72  1  0  0  0
 54 17  1  0  0  0
 55 18  1  0  0  0
 55 20  1  0  0  0
 56 19  1  0  0  0
 56 53  1  0  0  0
 57 16  1  0  0  0
 58 83  1  0  0  0
 58 59  1  0  0  0
 59 84  1  0  0  0
 59 60  1  0  0  0
 60 85  1  0  0  0
 89 61  1  0  0  0
 89 63  1  0  0  0
 89 82  1  0  0  0
 90 65  1  0  0  0
 90 67  1  0  0  0
 90 80  1  0  0  0
 91 69  1  0  0  0
 91 71  1  0  0  0
 91 78  1  0  0  0
 92 73  1  0  0  0
 92 75  1  0  0  0
 92 76  1  0  0  0
 93 85  1  0  0  0
 93 87  1  0  0  0
 93 88  1  0  0  0
 21  1  2  0  0  0
 22  2  2  0  0  0
 23 24  2  0  0  0
 25  4  2  0  0  0
 33  7  2  0  0  0
 34  8  2  0  0  0
 35 36  2  0  0  0
 37  9  2  0  0  0
 43 12  2  0  0  0
 44 13  2  0  0  0
 45 46  2  0  0  0
 47 14  2  0  0  0
 53 17  2  0  0  0
 54 18  2  0  0  0
 55 56  2  0  0  0
 57 19  2  0  0  0
 89 62  2  0  0  0
 90 66  2  0  0  0
 91 70  2  0  0  0
 92 74  2  0  0  0
 93 86  2  0  0  0
M  END
> <rmsd>
0.723830342

$$$$
CHEMBL2373178 PubChem-73350330


 66 74  0  0  0  0  0  0  0  0999 V2000
   -4.4139    0.1860  -16.3131 N   0  0  0  0  0
   -2.7208    1.2940  -15.2621 N   0  0  0  0  0
   -3.4436    0.2265  -18.5293 N   0  0  0  0  0
   -1.3303    1.3131  -18.6432 N   0  0  0  0  0
   -0.2746    2.2719  -16.6824 N   0  0  0  0  0
   -4.6320    0.5938  -13.9120 N   0  0  0  0  0
   -6.1143   -8.0710  -21.3218 N   0  0  0  0  0
   -7.6316   -8.9373  -22.7867 N   0  0  0  0  0
   -7.0869   -9.0151  -19.3170 N   0  0  0  0  0
   -9.0215  -10.3445  -19.7136 N   0  0  0  0  0
   -9.9026  -10.6895  -21.9434 N   0  0  0  0  0
   -5.8033   -7.5927  -23.6996 N   0  0  0  0  0
   -6.1279    6.9588  -13.5409 N   0  0  0  0  0
   -8.2123    7.5588  -12.8211 N   0  0  0  0  0
   -4.9038    8.5773  -12.2236 N   0  0  0  0  0
   -6.2795    9.9651  -10.8640 N   0  0  0  0  0
   -8.6946    9.7500  -10.8445 N   0  0  0  0  0
   -8.0568    5.7034  -14.4002 N   0  0  0  0  0
   -3.9327    0.6849  -15.1481 C   0  0  0  0  0
   -2.4664    1.1728  -16.5807 C   0  0  0  0  0
   -3.4737    0.5196  -17.2076 C   0  0  0  0  0
   -2.3578    0.6389  -19.2530 C   0  0  0  0  0
   -1.3588    1.5916  -17.3066 C   0  0  0  0  0
   -5.6926   -0.4743  -16.5435 C   0  0  0  0  0
   -6.6316    0.4528  -17.2916 C   0  0  0  0  0
   -7.1505   -0.3975  -18.4316 C   0  0  0  0  0
   -6.5959   -1.7733  -18.1461 C   0  0  0  0  0
   -6.1437   -2.4382  -19.4341 C   0  0  0  0  0
   -5.3805   -6.2751  -19.8417 C   0  0  0  0  0
   -4.9535   -7.3536  -20.8061 C   0  0  0  0  0
   -6.5089   -8.1862  -22.6141 C   0  0  0  0  0
   -7.9284   -9.2996  -21.5228 C   0  0  0  0  0
   -7.0297   -8.7834  -20.6506 C   0  0  0  0  0
   -8.1023   -9.8046  -18.8492 C   0  0  0  0  0
   -8.9569  -10.1058  -21.0560 C   0  0  0  0  0
   -3.4456   -7.4737  -19.1447 C   0  0  0  0  0
   -4.2322   -6.2078  -18.8648 C   0  0  0  0  0
   -3.3139   -8.2899  -17.8758 C   0  0  0  0  0
   -5.4488    3.5063  -16.2937 C   0  0  0  0  0
   -4.6099    4.6218  -15.6807 C   0  0  0  0  0
   -5.0236    6.2495  -14.1859 C   0  0  0  0  0
   -7.4686    6.7280  -13.6021 C   0  0  0  0  0
   -7.2685    8.3336  -12.2509 C   0  0  0  0  0
   -6.0328    7.9790  -12.6789 C   0  0  0  0  0
   -5.0371    9.5829  -11.3058 C   0  0  0  0  0
   -7.4128    9.3559  -11.3231 C   0  0  0  0  0
   -4.5812    5.0751  -13.3520 C   0  0  0  0  0
   -3.9751    4.1577  -14.3782 C   0  0  0  0  0
   -5.4937   -1.6517  -17.2847 O   0  0  0  0  0
   -7.2452   -2.8713  -20.1788 O   0  0  0  0  0
   -8.1193   -5.1324  -21.1606 O   0  0  0  0  0
   -5.5820   -5.0610  -20.5112 O   0  0  0  0  0
   -4.1007   -8.2376  -20.1282 O   0  0  0  0  0
   -3.4163   -5.0987  -19.0994 O   0  0  0  0  0
   -1.9888   -8.2657  -17.4409 O   0  0  0  0  0
   -7.6259   -5.1045  -18.5914 O   0  0  0  0  0
   -8.5492   -0.4467  -18.4652 O   0  0  0  0  0
   -7.6582    0.8646  -16.4301 O   0  0  0  0  0
   -9.0968    3.0045  -16.0845 O   0  0  0  0  0
   -6.5716    3.2461  -15.5073 O   0  0  0  0  0
   -5.4012    5.7682  -15.4516 O   0  0  0  0  0
   -2.5881    4.3337  -14.4724 O   0  0  0  0  0
   -3.6554    5.4776  -12.3858 O   0  0  0  0  0
   -7.5121    3.0640  -18.1480 O   0  0  0  0  0
   -7.1651   -4.5661  -20.1330 P   0  0  0  0  0
   -7.7282    2.5576  -16.5428 P   0  0  0  0  0
  1 19  1  0  0  0
  7 31  1  0  0  0
 13 42  1  0  0  0
 19  6  1  0  0  0
 20  2  1  0  0  0
 21  3  1  0  0  0
 21  1  1  0  0  0
 22  4  1  0  0  0
 23  5  1  0  0  0
 23 20  1  0  0  0
 24  1  1  0  0  0
 24 25  1  0  0  0
 24 49  1  0  0  0
 25 26  1  0  0  0
 25 58  1  0  0  0
 26 27  1  0  0  0
 26 57  1  0  0  0
 27 49  1  0  0  0
 27 28  1  0  0  0
 28 50  1  0  0  0
 29 52  1  0  0  0
 29 30  1  0  0  0
 30  7  1  0  0  0
 30 53  1  0  0  0
 31 12  1  0  0  0
 32  8  1  0  0  0
 33  9  1  0  0  0
 33  7  1  0  0  0
 34 10  1  0  0  0
 35 11  1  0  0  0
 35 32  1  0  0  0
 36 53  1  0  0  0
 36 37  1  0  0  0
 36 38  1  0  0  0
 37 54  1  0  0  0
 37 29  1  0  0  0
 38 55  1  0  0  0
 39 60  1  0  0  0
 40 39  1  0  0  0
 40 61  1  0  0  0
 41 61  1  0  0  0
 41 13  1  0  0  0
 41 47  1  0  0  0
 42 18  1  0  0  0
 43 14  1  0  0  0
 44 15  1  0  0  0
 44 13  1  0  0  0
 45 16  1  0  0  0
 46 17  1  0  0  0
 46 43  1  0  0  0
 47 48  1  0  0  0
 47 63  1  0  0  0
 48 62  1  0  0  0
 48 40  1  0  0  0
 65 50  1  0  0  0
 65 52  1  0  0  0
 65 56  1  0  0  0
 66 58  1  0  0  0
 66 60  1  0  0  0
 66 64  1  0  0  0
 19  2  2  0  0  0
 20 21  2  0  0  0
 22  3  2  0  0  0
 23  4  2  0  0  0
 31  8  2  0  0  0
 32 33  2  0  0  0
 34  9  2  0  0  0
 35 10  2  0  0  0
 42 14  2  0  0  0
 43 44  2  0  0  0
 45 15  2  0  0  0
 46 16  2  0  0  0
 65 51  2  0  0  0
 66 59  2  0  0  0
M  END
> <rmsd>
0.609155178

$$$$
CHEMBL1791417


 40 42  0  0  0  0  0  0  0  0999 V2000
   -0.6572    3.6372  -16.9581 N   0  0  0  0  0
   -2.0897    2.9392  -15.1309 N   0  0  0  0  0
   -3.7828    1.2921  -15.4216 N   0  0  0  0  0
   -2.2469    1.6612  -18.5502 N   0  0  0  0  0
   -3.9184    0.4147  -17.6684 N   0  0  0  0  0
  -11.0248   -2.8342  -17.8864 N   0  0  0  0  0
   -1.7107    2.8333  -16.4389 C   0  0  0  0  0
   -3.1136    2.1787  -14.6232 C   0  0  0  0  0
   -3.3963    1.1917  -16.7160 C   0  0  0  0  0
   -2.3949    1.9301  -17.2397 C   0  0  0  0  0
   -3.2102    0.7254  -18.7859 C   0  0  0  0  0
   -5.0735   -0.4669  -17.5553 C   0  0  0  0  0
   -6.1987   -2.0343  -18.6813 C   0  0  0  0  0
   -6.1978   -2.7957  -20.0113 C   0  0  0  0  0
   -5.0513   -3.8074  -20.1539 C   0  0  0  0  0
   -8.5691   -4.2507  -18.9894 C   0  0  0  0  0
  -10.0262   -4.5678  -19.2817 C   0  0  0  0  0
  -10.8770   -3.3011  -19.2549 C   0  0  0  0  0
  -12.2316   -3.5112  -19.8612 C   0  0  0  0  0
   -7.0914   -0.8099  -18.7613 C   0  0  0  0  0
   -6.3256    0.2508  -18.0049 C   0  0  0  0  0
   -4.9000   -1.6055  -18.3573 O   0  0  0  0  0
   -5.3124   -4.6625  -17.5639 O   0  0  0  0  0
   -6.3422   -6.2521  -19.3807 O   0  0  0  0  0
   -3.5813   -5.9824  -19.0452 O   0  0  0  0  0
   -4.6136   -8.3974  -18.9458 O   0  0  0  0  0
   -4.3394   -7.1717  -16.6387 O   0  0  0  0  0
   -2.1512   -8.1261  -18.0824 O   0  0  0  0  0
   -0.9470  -10.2318  -17.1055 O   0  0  0  0  0
   -2.3649   -8.8520  -15.4098 O   0  0  0  0  0
   -3.5336  -10.4490  -17.3372 O   0  0  0  0  0
   -7.6711   -4.5984  -21.6668 O   0  0  0  0  0
  -12.6231   -4.6579  -20.2075 O   0  0  0  0  0
  -13.0731   -2.4206  -20.0406 O   0  0  0  0  0
   -8.3292   -1.0856  -18.1716 O   0  0  0  0  0
   -7.0264    0.7171  -16.8883 O   0  0  0  0  0
   -5.0886   -5.1935  -18.9625 P   0  0  0  0  0
   -3.7093   -7.4491  -18.1884 P   0  0  0  0  0
   -2.2244   -9.4315  -16.9928 P   0  0  0  0  0
   -7.8011   -3.4915  -20.4088 S   0  0  0  0  0
  1  7  1  0  0  0
  5  9  1  0  0  0
  8  2  1  0  0  0
  9  3  1  0  0  0
 10  4  1  0  0  0
 10  7  1  0  0  0
 11  5  1  0  0  0
 12  5  1  0  0  0
 12 22  1  0  0  0
 13 22  1  0  0  0
 13 14  1  0  0  0
 13 20  1  0  0  0
 14 15  1  0  0  0
 14 40  1  0  0  0
 16 40  1  0  0  0
 16 17  1  0  0  0
 18 17  1  0  0  0
 18  6  1  0  0  0
 18 19  1  0  0  0
 19 34  1  0  0  0
 20 35  1  0  0  0
 20 21  1  0  0  0
 21 36  1  0  0  0
 21 12  1  0  0  0
 37 15  1  0  0  0
 37 24  1  0  0  0
 37 25  1  0  0  0
 38 25  1  0  0  0
 38 27  1  0  0  0
 38 28  1  0  0  0
 39 28  1  0  0  0
 39 30  1  0  0  0
 39 31  1  0  0  0
 40 32  1  0  0  0
  7  2  2  0  0  0
  8  3  2  0  0  0
  9 10  2  0  0  0
 11  4  2  0  0  0
 19 33  2  0  0  0
 37 23  2  0  0  0
 38 26  2  0  0  0
 39 29  2  0  0  0
M  CHG  2  40   1  32  -1
M  END
> <rmsd>
0.77151829

$$$$
CHEMBL2058186 PubChem-11528283


 90101  0  0  0  0  0  0  0  0999 V2000
   -5.5884    4.2588  -16.7153 C   0  0  0  0  0
   -5.3340    5.2334  -17.8463 C   0  0  0  0  0
   -4.6132    6.4562  -17.3141 C   0  0  0  0  0
   -5.5731    7.5819  -17.5999 C   0  0  0  0  0
   -6.4925    6.9978  -18.6444 C   0  0  0  0  0
   -8.3347    8.5022  -17.7181 C   0  0  0  0  0
   -9.9295    8.0524  -19.0455 C   0  0  0  0  0
  -11.1226    7.9368  -19.7470 C   0  0  0  0  0
  -10.0518    6.3446  -21.1663 C   0  0  0  0  0
   -8.8579    7.3173  -19.4106 C   0  0  0  0  0
   -6.5454    0.3789  -17.6479 C   0  0  0  0  0
   -7.5046   -0.4164  -18.4982 C   0  0  0  0  0
   -6.8523   -1.7725  -18.5884 C   0  0  0  0  0
   -7.1326   -2.4328  -19.9329 C   0  0  0  0  0
   -5.9959   -4.1593  -22.4999 C   0  0  0  0  0
   -6.3789   -6.0484  -21.3927 C   0  0  0  0  0
   -6.8545   -7.1358  -22.3126 C   0  0  0  0  0
   -7.6371   -8.0694  -21.3948 C   0  0  0  0  0
   -7.4776   -9.5397  -21.7653 C   0  0  0  0  0
   -5.8284  -13.3533  -22.1239 C   0  0  0  0  0
   -4.7732  -14.0551  -21.3035 C   0  0  0  0  0
   -3.5866  -14.1425  -22.2298 C   0  0  0  0  0
   -2.8788  -15.4617  -22.0095 C   0  0  0  0  0
   -5.2453  -13.3298  -23.5219 C   0  0  0  0  0
   -6.7463  -13.2354  -25.5382 C   0  0  0  0  0
   -7.4773  -15.2271  -25.6463 C   0  0  0  0  0
   -8.0624  -16.4456  -25.9648 C   0  0  0  0  0
   -6.9506  -17.3908  -24.0749 C   0  0  0  0  0
   -6.6686  -15.1301  -24.5693 C   0  0  0  0  0
   -6.8726   -6.4763  -20.0321 C   0  0  0  0  0
   -5.7724   -5.1790  -18.1842 C   0  0  0  0  0
   -4.0752   -6.3799  -17.7484 C   0  0  0  0  0
   -2.9154   -6.9674  -17.2645 C   0  0  0  0  0
   -3.2638   -8.7560  -18.8092 C   0  0  0  0  0
   -4.7775   -6.9860  -18.7291 C   0  0  0  0  0
   -5.2897   -0.4779  -17.6128 C   0  0  0  0  0
   -2.8506    0.1250  -17.6267 C   0  0  0  0  0
   -2.7247    1.5408  -19.1993 C   0  0  0  0  0
   -2.3712    2.4783  -20.1593 C   0  0  0  0  0
   -4.6630    2.5715  -20.8261 C   0  0  0  0  0
   -4.0167    1.1554  -19.0847 C   0  0  0  0  0
   -3.4206    6.6143  -18.0279 O   0  0  0  0  0
   -4.9278    8.7224  -18.0930 O   0  0  0  0  0
   -6.5607    5.6113  -18.4308 O   0  0  0  0  0
   -6.1144    3.0718  -17.2307 O   0  0  0  0  0
   -7.7178    2.7989  -15.1683 O   0  0  0  0  0
   -5.2470    2.0080  -14.8116 O   0  0  0  0  0
   -7.0294    0.5698  -16.3488 O   0  0  0  0  0
   -6.5059   -1.7384  -20.9796 O   0  0  0  0  0
   -4.4319   -3.2916  -20.4433 O   0  0  0  0  0
   -4.3068   -1.8715  -22.6293 O   0  0  0  0  0
   -6.9583   -4.8239  -21.7371 O   0  0  0  0  0
   -8.0925  -10.3566  -20.8155 O   0  0  0  0  0
   -8.5549  -12.3731  -22.4208 O   0  0  0  0  0
   -7.9686  -12.9676  -19.9441 O   0  0  0  0  0
   -6.0448  -12.0352  -21.6961 O   0  0  0  0  0
   -1.6774  -15.4777  -22.7166 O   0  0  0  0  0
   -1.8904  -18.0887  -22.9744 O   0  0  0  0  0
   -0.7869  -17.2284  -20.7592 O   0  0  0  0  0
    0.5049  -17.0932  -23.1912 O   0  0  0  0  0
   -4.0455  -14.0662  -23.5540 O   0  0  0  0  0
   -4.4314  -13.3327  -20.1560 O   0  0  0  0  0
   -7.2310   -7.8363  -20.0749 O   0  0  0  0  0
   -5.7312   -7.7697  -22.8583 O   0  0  0  0  0
   -5.4687   -1.6288  -18.4007 O   0  0  0  0  0
   -8.7656   -0.5239  -17.9088 O   0  0  0  0  0
   -7.8338    7.5793  -18.5893 N   0  0  0  0  0
   -9.6359    8.8144  -17.9747 N   0  0  0  0  0
  -12.2802    8.6799  -19.3776 N   0  0  0  0  0
  -11.1577    7.0756  -20.8072 N   0  0  0  0  0
   -8.8838    6.4551  -20.4592 N   0  0  0  0  0
   -6.1975  -13.8812  -24.4792 N   0  0  0  0  0
   -7.5499  -14.0457  -26.2862 N   0  0  0  0  0
   -8.9073  -16.5888  -27.0989 N   0  0  0  0  0
   -7.7762  -17.5150  -25.1649 N   0  0  0  0  0
   -6.3817  -16.1859  -23.7703 N   0  0  0  0  0
   -5.8509   -6.2466  -19.0227 N   0  0  0  0  0
   -4.6706   -5.2309  -17.3806 N   0  0  0  0  0
   -2.1404   -6.3496  -16.2411 N   0  0  0  0  0
   -2.5284   -8.1584  -17.8148 N   0  0  0  0  0
   -4.4060   -8.1689  -19.2807 N   0  0  0  0  0
   -4.1245    0.2670  -18.0842 N   0  0  0  0  0
   -1.9566    0.9070  -18.2960 N   0  0  0  0  0
   -1.0199    2.9086  -20.3135 N   0  0  0  0  0
   -3.3597    2.9767  -20.9630 N   0  0  0  0  0
   -5.0041    1.6472  -19.8772 N   0  0  0  0  0
   -6.5583    2.1359  -15.8799 P   0  0  0  0  0
   -5.2890   -2.7628  -21.5716 P   0  0  0  0  0
   -7.6854  -11.9444  -21.2609 P   0  0  0  0  0
   -0.9967  -17.0034  -22.4245 P   0  0  0  0  0
  1 45  1  0  0  0
  2  1  1  0  0  0
  2  3  1  0  0  0
  2 44  1  0  0  0
  3 42  1  0  0  0
  3  4  1  0  0  0
  4 43  1  0  0  0
  4  5  1  0  0  0
  5 44  1  0  0  0
  5 67  1  0  0  0
  7 68  1  0  0  0
  8 69  1  0  0  0
  8 70  1  0  0  0
  9 71  1  0  0  0
 10 67  1  0  0  0
 10  7  1  0  0  0
 11 48  1  0  0  0
 11 12  1  0  0  0
 12 13  1  0  0  0
 12 66  1  0  0  0
 13 14  1  0  0  0
 13 65  1  0  0  0
 14 49  1  0  0  0
 15 52  1  0  0  0
 16 52  1  0  0  0
 16 17  1  0  0  0
 17 18  1  0  0  0
 17 64  1  0  0  0
 18 19  1  0  0  0
 18 63  1  0  0  0
 19 53  1  0  0  0
 20 56  1  0  0  0
 20 21  1  0  0  0
 21 22  1  0  0  0
 21 62  1  0  0  0
 22 23  1  0  0  0
 22 61  1  0  0  0
 23 57  1  0  0  0
 24 61  1  0  0  0
 24 72  1  0  0  0
 24 20  1  0  0  0
 26 73  1  0  0  0
 27 74  1  0  0  0
 27 75  1  0  0  0
 28 76  1  0  0  0
 29 72  1  0  0  0
 29 26  1  0  0  0
 30 63  1  0  0  0
 30 77  1  0  0  0
 30 16  1  0  0  0
 32 78  1  0  0  0
 33 79  1  0  0  0
 33 80  1  0  0  0
 34 81  1  0  0  0
 35 77  1  0  0  0
 35 32  1  0  0  0
 36 65  1  0  0  0
 36 82  1  0  0  0
 36 11  1  0  0  0
 38 83  1  0  0  0
 39 84  1  0  0  0
 39 85  1  0  0  0
 40 86  1  0  0  0
 41 82  1  0  0  0
 41 38  1  0  0  0
 67  6  1  0  0  0
 72 25  1  0  0  0
 77 31  1  0  0  0
 82 37  1  0  0  0
 87 45  1  0  0  0
 87 47  1  0  0  0
 87 48  1  0  0  0
 88 49  1  0  0  0
 88 51  1  0  0  0
 88 15  1  0  0  0
 89 53  1  0  0  0
 89 55  1  0  0  0
 89 56  1  0  0  0
 90 57  1  0  0  0
 90 59  1  0  0  0
 90 60  1  0  0  0
  6 68  2  0  0  0
  7  8  2  0  0  0
  9 70  2  0  0  0
 10 71  2  0  0  0
 25 73  2  0  0  0
 26 27  2  0  0  0
 28 75  2  0  0  0
 29 76  2  0  0  0
 31 78  2  0  0  0
 32 33  2  0  0  0
 34 80  2  0  0  0
 35 81  2  0  0  0
 37 83  2  0  0  0
 38 39  2  0  0  0
 40 85  2  0  0  0
 41 86  2  0  0  0
 87 46  2  0  0  0
 88 50  2  0  0  0
 89 54  2  0  0  0
 90 58  2  0  0  0
M  END
> <rmsd>
0.650365055

$$$$
CHEMBL3972437


 51 56  0  0  0  0  0  0  0  0999 V2000
   -5.1007   -6.9537  -20.6017 P   0  0  0  0  0
   -2.9049   -7.6675  -19.0817 P   0  0  0  0  0
   -6.6701   -4.7060  -20.1558 P   0  0  0  0  0
   -6.2246   -7.5190  -21.4406 O   0  0  0  0  0
   -4.3185   -8.2573  -19.8353 O   0  0  0  0  0
   -3.1302   -6.3197  -18.4278 O   0  0  0  0  0
   -2.4034   -8.7803  -17.9042 O   0  0  0  0  0
   -4.3040  -10.8435  -18.2647 O   0  0  0  0  0
   -2.4023  -12.9313  -24.2602 O   0  0  0  0  0
   -3.4288  -12.1217  -15.4464 O   0  0  0  0  0
   -2.0381  -13.3611  -17.2690 O   0  0  0  0  0
   -5.7150   -5.9051  -19.4040 O   0  0  0  0  0
   -7.8022   -5.3400  -20.9330 O   0  0  0  0  0
   -7.3462   -3.7259  -18.9499 O   0  0  0  0  0
   -8.3642   -0.7662  -18.4970 O   0  0  0  0  0
   -0.2285    1.5663  -18.9756 O   0  0  0  0  0
   -5.6295   -1.6974  -16.5070 O   0  0  0  0  0
   -7.4161    0.8316  -16.6578 O   0  0  0  0  0
   -4.0142   -6.1409  -21.6147 O   0  0  0  0  0
   -3.4947   -8.9314  -17.0408 C   0  0  0  0  0
   -3.9408  -10.3891  -16.9784 C   0  0  0  0  0
   -3.5412  -11.9958  -18.5320 C   0  0  0  0  0
   -3.3760  -12.8666  -20.8749 C   0  0  0  0  0
   -4.3153  -14.7395  -21.8986 C   0  0  0  0  0
   -2.9440  -13.2545  -23.1709 C   0  0  0  0  0
   -2.7796  -12.4892  -22.0260 C   0  0  0  0  0
   -2.3006  -11.0601  -20.5321 C   0  0  0  0  0
   -2.3646  -12.0394  -17.5883 C   0  0  0  0  0
   -2.8541  -11.2697  -16.3934 C   0  0  0  0  0
   -6.2602   -3.2498  -18.2128 C   0  0  0  0  0
   -6.6753   -2.0452  -17.3858 C   0  0  0  0  0
   -6.9875   -0.8683  -18.2813 C   0  0  0  0  0
   -6.4493    0.3062  -17.5174 C   0  0  0  0  0
   -5.3537   -0.3240  -16.6874 C   0  0  0  0  0
   -3.2677   -1.0886  -17.9153 C   0  0  0  0  0
   -2.2080    0.7377  -18.1230 C   0  0  0  0  0
   -3.3673    0.9923  -17.4802 C   0  0  0  0  0
   -2.8436    3.2599  -17.3053 C   0  0  0  0  0
   -1.3179    1.7706  -18.3785 C   0  0  0  0  0
   -3.0872  -11.9829  -19.9174 N   0  0  0  0  0
   -4.1464  -13.9774  -20.7757 N   0  0  0  0  0
   -3.7179  -14.3771  -23.0810 N   0  0  0  0  0
   -2.0885  -11.3479  -21.8477 N   0  0  0  0  0
   -5.1164  -15.9130  -21.8410 N   0  0  0  0  0
   -4.0577   -0.1434  -17.3395 N   0  0  0  0  0
   -2.1096   -0.5719  -18.4158 N   0  0  0  0  0
   -3.7142    2.2340  -17.0590 N   0  0  0  0  0
   -3.1686    4.5785  -16.8825 N   0  0  0  0  0
   -1.6597    3.0250  -17.9595 N   0  0  0  0  0
   -1.3547   -7.4985  -20.5072 S   0  0  0  0  0
   -5.5324   -3.4775  -21.4563 S   0  0  0  0  0
  1  5  1  0  0  0
  1 12  1  0  0  0
  1 19  1  0  0  0
  2  5  1  0  0  0
  2  7  1  0  0  0
  2 50  1  0  0  0
  3 12  1  0  0  0
  3 51  1  0  0  0
  3 14  1  0  0  0
 20  7  1  0  0  0
 21 20  1  0  0  0
 21  8  1  0  0  0
 22  8  1  0  0  0
 22 40  1  0  0  0
 22 28  1  0  0  0
 23 41  1  0  0  0
 24 42  1  0  0  0
 24 44  1  0  0  0
 25 26  1  0  0  0
 26 43  1  0  0  0
 27 40  1  0  0  0
 28 29  1  0  0  0
 28 11  1  0  0  0
 29 10  1  0  0  0
 29 21  1  0  0  0
 30 14  1  0  0  0
 31 30  1  0  0  0
 31 32  1  0  0  0
 31 17  1  0  0  0
 32 15  1  0  0  0
 32 33  1  0  0  0
 33 34  1  0  0  0
 33 18  1  0  0  0
 34 45  1  0  0  0
 34 17  1  0  0  0
 36 46  1  0  0  0
 37 47  1  0  0  0
 37 45  1  0  0  0
 38 48  1  0  0  0
 38 49  1  0  0  0
 39 36  1  0  0  0
 40 23  1  0  0  0
 42 25  1  0  0  0
 45 35  1  0  0  0
 49 39  1  0  0  0
  1  4  2  0  0  0
  2  6  2  0  0  0
  3 13  2  0  0  0
 24 41  2  0  0  0
 25  9  2  0  0  0
 26 23  2  0  0  0
 27 43  2  0  0  0
 35 46  2  0  0  0
 36 37  2  0  0  0
 38 47  2  0  0  0
 39 16  2  0  0  0
M  END
> <rmsd>
0.818816364

$$$$
CHEMBL1814782 PubChem-53392436


 36 39  0  0  0  0  0  0  0  0999 V2000
   -3.4929    2.7132  -15.0421 N   0  0  0  0  0
   -5.6010    1.9657  -14.1595 N   0  0  0  0  0
   -7.0192    0.4612  -15.3163 N   0  0  0  0  0
   -6.2077   -0.2986  -17.4442 N   0  0  0  0  0
   -4.6683    1.9228  -15.1545 C   0  0  0  0  0
   -6.7614    1.2460  -14.2324 C   0  0  0  0  0
   -6.1008    0.4107  -16.3119 C   0  0  0  0  0
   -4.9261    1.1108  -16.2668 C   0  0  0  0  0
   -4.2592    0.8187  -17.4597 C   0  0  0  0  0
   -2.9418    1.2641  -17.9559 C   0  0  0  0  0
   -1.9541    1.9289  -17.2474 C   0  0  0  0  0
   -0.7992    2.1757  -18.0038 C   0  0  0  0  0
   -0.8564    1.7049  -19.3120 C   0  0  0  0  0
   -5.0917   -0.0517  -18.1668 C   0  0  0  0  0
   -7.3454   -1.1155  -17.8492 C   0  0  0  0  0
   -7.6517   -2.5851  -19.5321 C   0  0  0  0  0
   -6.8180   -3.3409  -20.5497 C   0  0  0  0  0
   -8.0709   -1.2565  -20.1020 C   0  0  0  0  0
   -8.1777   -0.3797  -18.8833 C   0  0  0  0  0
   -2.3600    0.9805  -19.5045 S   0  0  0  0  0
   -6.8967   -2.3459  -18.3724 O   0  0  0  0  0
   -6.5466   -4.6272  -20.0781 O   0  0  0  0  0
   -7.6999   -5.6502  -22.1883 O   0  0  0  0  0
   -5.2171   -4.9217  -22.4998 O   0  0  0  0  0
   -5.9422   -7.1738  -21.0129 O   0  0  0  0  0
   -3.3831   -6.7583  -21.4547 O   0  0  0  0  0
   -4.2838   -5.9841  -19.1125 O   0  0  0  0  0
   -4.0058   -8.6771  -19.7776 O   0  0  0  0  0
   -2.0823   -9.9778  -18.5755 O   0  0  0  0  0
   -1.3488   -7.7865  -19.7766 O   0  0  0  0  0
   -2.8214   -7.7538  -17.4339 O   0  0  0  0  0
   -9.2892   -1.3740  -20.7767 O   0  0  0  0  0
   -9.4966   -0.2986  -18.4256 O   0  0  0  0  0
   -6.3759   -5.5900  -21.4613 P   0  0  0  0  0
   -4.3682   -7.1215  -20.3657 P   0  0  0  0  0
   -2.5555   -8.5763  -18.8892 P   0  0  0  0  0
  1  5  1  0  0  0
  4  7  1  0  0  0
  6  2  1  0  0  0
  7  3  1  0  0  0
  8  9  1  0  0  0
  8  5  1  0  0  0
  9 10  1  0  0  0
 10 20  1  0  0  0
 11 12  1  0  0  0
 13 20  1  0  0  0
 14  4  1  0  0  0
 15  4  1  0  0  0
 15 21  1  0  0  0
 16 21  1  0  0  0
 16 17  1  0  0  0
 16 18  1  0  0  0
 17 22  1  0  0  0
 18 32  1  0  0  0
 18 19  1  0  0  0
 19 33  1  0  0  0
 19 15  1  0  0  0
 34 22  1  0  0  0
 34 24  1  0  0  0
 34 25  1  0  0  0
 35 25  1  0  0  0
 35 27  1  0  0  0
 35 28  1  0  0  0
 36 28  1  0  0  0
 36 30  1  0  0  0
 36 31  1  0  0  0
  5  2  2  0  0  0
  6  3  2  0  0  0
  7  8  2  0  0  0
  9 14  2  0  0  0
 10 11  2  0  0  0
 12 13  2  0  0  0
 34 23  2  0  0  0
 35 26  2  0  0  0
 36 29  2  0  0  0
M  CHG  3  24  -1  27  -1  30  -1
M  END
> <rmsd>
0.765433311

$$$$
CHEMBL527060 PubChem-136184175 PubChem-136352424


 93104  0  0  0  0  0  0  0  0999 V2000
   -1.8054    2.2184  -18.0056 S   0  0  0  0  0
   -7.3535    4.1525  -21.3015 S   0  0  0  0  0
   -5.8229   -2.5085  -18.3167 S   0  0  0  0  0
  -14.3431    8.6591  -23.3012 S   0  0  0  0  0
  -12.3300    4.3307  -17.1459 S   0  0  0  0  0
   -1.4272    1.0604  -19.1624 C   0  0  0  0  0
   -2.2132   -0.0564  -18.8735 C   0  0  0  0  0
   -2.9231    1.2601  -17.1914 C   0  0  0  0  0
   -3.5135    1.5542  -15.8653 C   0  0  0  0  0
   -2.7685    2.0621  -14.8641 C   0  0  0  0  0
   -3.3722    2.2594  -13.5063 C   0  0  0  0  0
   -0.5865    2.8884  -14.0458 C   0  0  0  0  0
   -6.0244    1.3883  -16.3219 C   0  0  0  0  0
   -6.2035    2.6648  -17.1315 C   0  0  0  0  0
   -5.6385    3.9560  -16.5192 C   0  0  0  0  0
   -5.7893    4.0651  -15.0105 C   0  0  0  0  0
   -8.6833    3.0674  -16.5848 C   0  0  0  0  0
   -9.9759    3.5887  -17.0472 C   0  0  0  0  0
  -11.3720    4.5941  -18.5051 C   0  0  0  0  0
  -11.8062    5.3175  -19.7297 C   0  0  0  0  0
  -11.0172    5.4238  -20.9020 C   0  0  0  0  0
   -9.7488    4.7038  -21.0611 C   0  0  0  0  0
   -8.5313    5.3583  -21.2661 C   0  0  0  0  0
   -8.4310    2.8889  -21.0725 C   0  0  0  0  0
   -8.0617    1.4382  -21.0260 C   0  0  0  0  0
   -8.8520   -0.2091  -19.2120 C   0  0  0  0  0
   -7.5640   -0.9017  -19.0341 C   0  0  0  0  0
   -7.3709   -1.8906  -18.0638 C   0  0  0  0  0
   -5.4742   -1.4945  -19.6075 C   0  0  0  0  0
   -4.3221   -1.6231  -20.5478 C   0  0  0  0  0
   -2.0291   -1.3352  -19.5718 C   0  0  0  0  0
   -4.6935   -2.4321  -21.8002 C   0  0  0  0  0
   -5.2935   -1.1287  -23.4889 C   0  0  0  0  0
   -6.2715   -1.0991  -24.6170 C   0  0  0  0  0
   -6.8899    0.0380  -25.1298 C   0  0  0  0  0
   -6.7881    1.3971  -24.5726 C   0  0  0  0  0
   -7.9442    0.8679  -22.4396 C   0  0  0  0  0
   -7.3266   -1.5712  -26.5123 C   0  0  0  0  0
   -6.5722   -2.1285  -25.5046 C   0  0  0  0  0
   -6.2115   -3.4826  -25.5316 C   0  0  0  0  0
   -6.6657   -4.2606  -26.6114 C   0  0  0  0  0
   -7.4395   -3.6843  -27.6403 C   0  0  0  0  0
   -7.7777   -2.3195  -27.6005 C   0  0  0  0  0
   -5.4727   -4.1276  -24.4094 C   0  0  0  0  0
   -6.1639   -4.5248  -22.0619 C   0  0  0  0  0
   -4.9109   -3.9233  -21.4794 C   0  0  0  0  0
   -3.5742   -5.5503  -20.7817 C   0  0  0  0  0
   -3.4979   -6.9768  -21.3059 C   0  0  0  0  0
   -3.3472   -7.9605  -20.1447 C   0  0  0  0  0
   -2.2166   -7.4974  -19.1754 C   0  0  0  0  0
   -2.3223   -5.9670  -18.9122 C   0  0  0  0  0
   -3.4149   -5.5685  -17.9158 C   0  0  0  0  0
   -1.1220   -7.7456  -17.0524 C   0  0  0  0  0
   -1.7749   -9.6375  -18.1716 C   0  0  0  0  0
   -3.0276   -9.3074  -20.7664 C   0  0  0  0  0
  -12.6439    6.8498  -21.9265 C   0  0  0  0  0
  -13.4676    6.7436  -20.7884 C   0  0  0  0  0
  -13.0365    5.9824  -19.7051 C   0  0  0  0  0
  -13.0181    7.6357  -23.1239 C   0  0  0  0  0
  -12.8173    8.4290  -25.2262 C   0  0  0  0  0
  -13.9919    9.1052  -24.8846 C   0  0  0  0  0
  -12.1825    8.5627  -26.5440 C   0  0  0  0  0
  -11.1152    3.6029  -16.2373 C   0  0  0  0  0
   -3.0310    0.0522  -17.7870 N   0  0  0  0  0
   -4.8365    1.0923  -15.5750 N   0  0  0  0  0
   -7.6028    2.8836  -17.5140 N   0  0  0  0  0
  -10.1191    4.1432  -18.2821 N   0  0  0  0  0
   -9.6919    3.3485  -20.9678 N   0  0  0  0  0
   -9.0865    0.7083  -20.2858 N   0  0  0  0  0
   -6.5231   -0.7005  -19.8826 N   0  0  0  0  0
   -3.1378   -2.1666  -19.9034 N   0  0  0  0  0
   -7.5181   -0.2624  -26.2865 N   0  0  0  0  0
   -2.1827   -8.2662  -17.9081 N   0  0  0  0  0
  -11.4566    6.1818  -21.9425 N   0  0  0  0  0
  -12.2870    7.6274  -24.2591 N   0  0  0  0  0
  -10.9920    7.8406  -26.8398 N   0  0  0  0  0
   -1.4251    2.3913  -15.0764 O   0  0  0  0  0
   -6.9690    0.5572  -16.2750 O   0  0  0  0  0
   -4.3134    4.1580  -16.8966 O   0  0  0  0  0
   -8.5279    2.7918  -15.3638 O   0  0  0  0  0
   -9.8037   -0.4652  -18.4263 O   0  0  0  0  0
   -0.8653   -1.7274  -19.8486 O   0  0  0  0  0
   -5.8121   -1.8616  -22.4241 O   0  0  0  0  0
   -6.4024    2.3387  -25.3130 O   0  0  0  0  0
   -7.0603    1.6627  -23.2279 O   0  0  0  0  0
   -6.4053   -4.5801  -23.4372 O   0  0  0  0  0
   -7.0272   -4.9856  -21.2724 O   0  0  0  0  0
   -3.7843   -4.6669  -21.8451 O   0  0  0  0  0
   -2.3810   -5.2195  -20.1098 O   0  0  0  0  0
   -4.5616   -8.0567  -19.4593 O   0  0  0  0  0
   -8.2061    0.6129  -27.0947 O   0  0  0  0  0
  -14.7021    7.3753  -20.7099 O   0  0  0  0  0
  -12.6853    9.3144  -27.4227 O   0  0  0  0  0
  6  1  1  0  0  0
  7 64  1  0  0  0
  8  9  1  0  0  0
  8  1  1  0  0  0
  9 65  1  0  0  0
 10 77  1  0  0  0
 11 10  1  0  0  0
 12 77  1  0  0  0
 14 13  1  0  0  0
 14 15  1  0  0  0
 14 66  1  0  0  0
 15 16  1  0  0  0
 15 79  1  0  0  0
 17 18  1  0  0  0
 18 67  1  0  0  0
 19 20  1  0  0  0
 19  5  1  0  0  0
 21 22  1  0  0  0
 21 74  1  0  0  0
 22 68  1  0  0  0
 23  2  1  0  0  0
 24  2  1  0  0  0
 25 24  1  0  0  0
 25 69  1  0  0  0
 25 37  1  0  0  0
 26 27  1  0  0  0
 27 70  1  0  0  0
 28  3  1  0  0  0
 29  3  1  0  0  0
 30 29  1  0  0  0
 30 71  1  0  0  0
 30 32  1  0  0  0
 31  7  1  0  0  0
 32 83  1  0  0  0
 33 83  1  0  0  0
 33 34  1  0  0  0
 35 36  1  0  0  0
 35 72  1  0  0  0
 36 85  1  0  0  0
 37 85  1  0  0  0
 39 40  1  0  0  0
 39 34  1  0  0  0
 41 42  1  0  0  0
 43 38  1  0  0  0
 44 40  1  0  0  0
 44 86  1  0  0  0
 45 86  1  0  0  0
 46 45  1  0  0  0
 46 88  1  0  0  0
 46 32  1  0  0  0
 47 88  1  0  0  0
 47 48  1  0  0  0
 47 89  1  0  0  0
 48 49  1  0  0  0
 49 50  1  0  0  0
 49 90  1  0  0  0
 49 55  1  0  0  0
 50 51  1  0  0  0
 50 73  1  0  0  0
 51 89  1  0  0  0
 51 52  1  0  0  0
 53 73  1  0  0  0
 54 73  1  0  0  0
 56 57  1  0  0  0
 56 59  1  0  0  0
 57 92  1  0  0  0
 58 20  1  0  0  0
 59  4  1  0  0  0
 60 75  1  0  0  0
 60 62  1  0  0  0
 61  4  1  0  0  0
 62 76  1  0  0  0
 63  5  1  0  0  0
 65 13  1  0  0  0
 66 17  1  0  0  0
 69 26  1  0  0  0
 71 31  1  0  0  0
 72 38  1  0  0  0
 72 91  1  0  0  0
  6  7  2  0  0  0
  8 64  2  0  0  0
  9 10  2  0  0  0
 13 78  2  0  0  0
 17 80  2  0  0  0
 19 67  2  0  0  0
 20 21  2  0  0  0
 22 23  2  0  0  0
 24 68  2  0  0  0
 26 81  2  0  0  0
 27 28  2  0  0  0
 29 70  2  0  0  0
 31 82  2  0  0  0
 34 35  2  0  0  0
 36 84  2  0  0  0
 38 39  2  0  0  0
 40 41  2  0  0  0
 42 43  2  0  0  0
 45 87  2  0  0  0
 56 74  2  0  0  0
 57 58  2  0  0  0
 59 75  2  0  0  0
 60 61  2  0  0  0
 62 93  2  0  0  0
 63 18  2  0  0  0
M  END
> <rmsd>
0.621691823

$$$$
CHEMBL506436 95615810 MCULE-6565941536 MolPort-019-936-967 PubChem-21603979 ZINC000095615810 ZINC95615810


 53 57  0  0  0  0  0  0  0  0999 V2000
   -1.4177   -3.9410  -19.7519 C   0  0  0  0  0
   -2.1054   -5.2677  -20.0039 C   0  0  0  0  0
   -1.1282   -6.4184  -19.7342 C   0  0  0  0  0
   -1.8551   -7.6909  -19.2874 C   0  0  0  0  0
   -3.2701   -7.7544  -19.8739 C   0  0  0  0  0
   -4.0482   -6.4433  -19.6547 C   0  0  0  0  0
   -6.0371   -5.8395  -20.4472 C   0  0  0  0  0
   -6.9650   -6.8193  -21.1656 C   0  0  0  0  0
   -8.4201   -6.3637  -20.9801 C   0  0  0  0  0
   -7.9321   -4.1892  -20.6168 C   0  0  0  0  0
   -6.4087   -4.3823  -20.7438 C   0  0  0  0  0
   -4.8305   -2.5637  -20.2130 C   0  0  0  0  0
   -4.2623   -1.6785  -19.1941 C   0  0  0  0  0
   -3.4213   -0.6935  -19.4968 C   0  0  0  0  0
   -2.8589    0.2012  -18.4761 C   0  0  0  0  0
   -3.1745    0.0571  -17.1150 C   0  0  0  0  0
   -2.6298    0.9293  -16.1698 C   0  0  0  0  0
   -1.7679    1.9517  -16.5763 C   0  0  0  0  0
   -1.4490    2.0996  -17.9331 C   0  0  0  0  0
   -1.9944    1.2249  -18.8776 C   0  0  0  0  0
   -8.3439   -2.7595  -20.9526 C   0  0  0  0  0
   -9.0392   -1.4214  -19.3092 C   0  0  0  0  0
   -9.2298   -2.1427  -17.9615 C   0  0  0  0  0
   -8.1977   -1.6798  -16.9308 C   0  0  0  0  0
   -8.0827   -0.1531  -16.9355 C   0  0  0  0  0
   -7.9035    0.3481  -18.3656 C   0  0  0  0  0
   -9.2338   -7.2726  -22.9208 C   0  0  0  0  0
   -9.0161   -8.6927  -23.4108 C   0  0  0  0  0
   -8.8760   -8.7199  -24.8943 C   0  0  0  0  0
   -7.6540   -9.0870  -25.4669 C   0  0  0  0  0
   -7.5168   -9.1350  -26.8573 C   0  0  0  0  0
   -8.6020   -8.8201  -27.6795 C   0  0  0  0  0
   -9.8298   -8.4565  -27.1085 C   0  0  0  0  0
   -9.9651   -8.4092  -25.7177 C   0  0  0  0  0
   -3.2418   -5.3782  -19.1788 O   0  0  0  0  0
   -4.7129   -6.0738  -20.8301 O   0  0  0  0  0
   -8.6042   -5.0631  -21.4884 O   0  0  0  0  0
   -5.7348   -3.5461  -19.8129 O   0  0  0  0  0
   -4.5204   -2.4308  -21.4283 O   0  0  0  0  0
   -0.5921    3.1114  -18.3467 O   0  0  0  0  0
   -1.2330    2.8157  -15.6299 O   0  0  0  0  0
   -7.8908   -1.8757  -19.9701 O   0  0  0  0  0
   -9.0158   -0.0131  -19.1557 O   0  0  0  0  0
   -7.0086    0.2596  -16.1447 O   0  0  0  0  0
   -6.9610   -2.2710  -17.2011 O   0  0  0  0  0
  -10.5164   -1.9024  -17.4782 O   0  0  0  0  0
   -9.3551   -7.2740  -21.5212 O   0  0  0  0  0
  -10.9145   -8.1416  -27.9165 O   0  0  0  0  0
   -8.4568   -8.8713  -29.0597 O   0  0  0  0  0
   -6.7977   -8.0973  -20.6307 O   0  0  0  0  0
   -3.9774   -8.8314  -19.3430 O   0  0  0  0  0
   -1.9013   -7.7357  -17.8926 O   0  0  0  0  0
   -0.3899   -6.6810  -20.8880 O   0  0  0  0  0
  2  1  1  0  0  0
  2  3  1  0  0  0
  2 35  1  0  0  0
  3  4  1  0  0  0
  3 53  1  0  0  0
  4  5  1  0  0  0
  4 52  1  0  0  0
  5  6  1  0  0  0
  5 51  1  0  0  0
  6 35  1  0  0  0
  6 36  1  0  0  0
  7 36  1  0  0  0
  7  8  1  0  0  0
  8  9  1  0  0  0
  8 50  1  0  0  0
  9 37  1  0  0  0
  9 47  1  0  0  0
 10 37  1  0  0  0
 10 11  1  0  0  0
 10 21  1  0  0  0
 11 38  1  0  0  0
 11  7  1  0  0  0
 12 38  1  0  0  0
 12 13  1  0  0  0
 14 15  1  0  0  0
 16 17  1  0  0  0
 18 19  1  0  0  0
 18 41  1  0  0  0
 19 40  1  0  0  0
 20 15  1  0  0  0
 21 42  1  0  0  0
 22 42  1  0  0  0
 22 23  1  0  0  0
 22 43  1  0  0  0
 23 24  1  0  0  0
 23 46  1  0  0  0
 24 25  1  0  0  0
 24 45  1  0  0  0
 25 26  1  0  0  0
 25 44  1  0  0  0
 26 43  1  0  0  0
 27 47  1  0  0  0
 27 28  1  0  0  0
 28 29  1  0  0  0
 30 31  1  0  0  0
 32 33  1  0  0  0
 32 49  1  0  0  0
 33 48  1  0  0  0
 34 29  1  0  0  0
 12 39  2  0  0  0
 13 14  2  0  0  0
 15 16  2  0  0  0
 17 18  2  0  0  0
 19 20  2  0  0  0
 29 30  2  0  0  0
 31 32  2  0  0  0
 33 34  2  0  0  0
M  END
> <rmsd>
0.779082179

$$$$
CHEMBL414577 PubChem-11665341


 72 77  0  0  0  0  0  0  0  0999 V2000
    5.1622    0.9551  -20.2838 C   0  0  0  0  0
    4.9573    3.1474  -20.0864 C   0  0  0  0  0
    4.8197    4.3244  -19.1787 C   0  0  0  0  0
    5.6891    5.4077  -19.3559 C   0  0  0  0  0
    5.5526    6.5588  -18.5785 C   0  0  0  0  0
    4.5462    6.6380  -17.6113 C   0  0  0  0  0
    4.4065    7.8507  -16.7849 C   0  0  0  0  0
    5.1220   10.2800  -16.4548 C   0  0  0  0  0
    5.2131   10.1687  -15.0613 C   0  0  0  0  0
    5.4222   11.2794  -14.2630 C   0  0  0  0  0
    5.5475   12.5451  -14.8368 C   0  0  0  0  0
    5.4458   12.6984  -16.2369 C   0  0  0  0  0
    5.5494   13.9779  -16.7955 C   0  0  0  0  0
    5.4536   14.1801  -18.1647 C   0  0  0  0  0
    5.2369   13.0939  -19.0016 C   0  0  0  0  0
    5.1214   11.7921  -18.4987 C   0  0  0  0  0
    5.2318   11.5620  -17.0799 C   0  0  0  0  0
    3.6764    5.5552  -17.4305 C   0  0  0  0  0
    3.7958    4.3973  -18.2136 C   0  0  0  0  0
    1.5323    3.3772  -17.6277 C   0  0  0  0  0
   -0.5734    1.9375  -17.7785 C   0  0  0  0  0
   -1.2876    0.9869  -17.0333 C   0  0  0  0  0
   -2.5925    0.6246  -17.3836 C   0  0  0  0  0
   -3.2579   -0.4829  -16.6754 C   0  0  0  0  0
   -4.4591   -2.6344  -17.3081 C   0  0  0  0  0
   -3.3984   -3.3933  -16.7877 C   0  0  0  0  0
   -3.3335   -4.7684  -16.9519 C   0  0  0  0  0
   -4.3207   -5.4376  -17.6677 C   0  0  0  0  0
   -5.4159   -4.7151  -18.1945 C   0  0  0  0  0
   -6.3846   -5.3910  -18.9486 C   0  0  0  0  0
   -7.4811   -4.7214  -19.4753 C   0  0  0  0  0
   -7.6454   -3.3610  -19.2113 C   0  0  0  0  0
   -6.7093   -2.6421  -18.4564 C   0  0  0  0  0
   -5.5317   -3.3000  -17.9768 C   0  0  0  0  0
   -3.1903    1.2198  -18.4976 C   0  0  0  0  0
   -2.4886    2.1582  -19.2591 C   0  0  0  0  0
   -1.1806    2.5191  -18.9172 C   0  0  0  0  0
   -0.4276    3.3855  -19.8761 C   0  0  0  0  0
    1.3633    3.3376  -21.1827 C   0  0  0  0  0
    5.1950    1.9918  -19.3480 O   0  0  0  0  0
    3.7324    7.8143  -15.7184 O   0  0  0  0  0
    4.7170   14.8784  -13.7844 O   0  0  0  0  0
    7.1348   14.6062  -14.1951 O   0  0  0  0  0
    6.0879   13.3644  -12.1809 O   0  0  0  0  0
    6.8367   16.4503  -18.3126 O   0  0  0  0  0
    4.3866   16.6131  -18.4350 O   0  0  0  0  0
    5.6601   15.7134  -20.5052 O   0  0  0  0  0
    5.9440    9.5823  -19.8041 O   0  0  0  0  0
    3.5206    9.8373  -19.4118 O   0  0  0  0  0
    4.6238   11.2981  -21.2331 O   0  0  0  0  0
    0.9606    4.4964  -17.5172 O   0  0  0  0  0
   -2.8247   -0.8646  -15.5489 O   0  0  0  0  0
   -5.3469   -7.9090  -17.3934 O   0  0  0  0  0
   -2.9188   -7.6789  -17.1813 O   0  0  0  0  0
   -3.9361   -7.4780  -19.5667 O   0  0  0  0  0
   -8.5069   -5.2580  -21.8778 O   0  0  0  0  0
  -10.0590   -5.2319  -19.9659 O   0  0  0  0  0
   -8.4540   -7.2501  -20.2137 O   0  0  0  0  0
   -8.6309   -0.7764  -18.3671 O   0  0  0  0  0
   -6.3576    0.0030  -18.8508 O   0  0  0  0  0
   -6.9452   -0.6929  -16.4086 O   0  0  0  0  0
    0.2463    2.5854  -20.8011 O   0  0  0  0  0
    5.0040    9.0771  -17.2246 N   0  0  0  0  0
    2.9059    3.2880  -18.0309 N   0  0  0  0  0
    0.7965    2.1662  -17.4269 N   0  0  0  0  0
   -4.3258   -1.1986  -17.3178 N   0  0  0  0  0
    5.8702   13.9101  -13.7588 S   0  0  0  0  0
    5.5864   15.7969  -18.8279 S   0  0  0  0  0
    4.8005   10.5592  -19.7265 S   0  0  0  0  0
   -4.1328   -7.1801  -17.9207 S   0  0  0  0  0
   -8.6740   -5.5969  -20.4231 S   0  0  0  0  0
   -7.1716   -0.9776  -18.0524 S   0  0  0  0  0
  1 40  1  0  0  0
  2 40  1  0  0  0
  2  3  1  0  0  0
  4  5  1  0  0  0
  6  7  1  0  0  0
  6 18  1  0  0  0
  7 63  1  0  0  0
  9 10  1  0  0  0
 11 12  1  0  0  0
 13 14  1  0  0  0
 15 16  1  0  0  0
 17  8  1  0  0  0
 17 12  1  0  0  0
 19 64  1  0  0  0
 19  3  1  0  0  0
 20 65  1  0  0  0
 22 23  1  0  0  0
 23 24  1  0  0  0
 24 66  1  0  0  0
 26 27  1  0  0  0
 28 29  1  0  0  0
 30 31  1  0  0  0
 32 33  1  0  0  0
 34 25  1  0  0  0
 34 29  1  0  0  0
 35 36  1  0  0  0
 37 21  1  0  0  0
 38 37  1  0  0  0
 38 62  1  0  0  0
 39 62  1  0  0  0
 63  8  1  0  0  0
 64 20  1  0  0  0
 65 21  1  0  0  0
 66 25  1  0  0  0
 67 11  1  0  0  0
 67 44  1  0  0  0
 68 14  1  0  0  0
 68 47  1  0  0  0
 69 16  1  0  0  0
 69 50  1  0  0  0
 70 28  1  0  0  0
 70 55  1  0  0  0
 71 31  1  0  0  0
 71 58  1  0  0  0
 72 33  1  0  0  0
 72 61  1  0  0  0
  3  4  2  0  0  0
  5  6  2  0  0  0
  7 41  2  0  0  0
  8  9  2  0  0  0
 10 11  2  0  0  0
 12 13  2  0  0  0
 14 15  2  0  0  0
 16 17  2  0  0  0
 18 19  2  0  0  0
 20 51  2  0  0  0
 21 22  2  0  0  0
 23 35  2  0  0  0
 24 52  2  0  0  0
 25 26  2  0  0  0
 27 28  2  0  0  0
 29 30  2  0  0  0
 31 32  2  0  0  0
 33 34  2  0  0  0
 36 37  2  0  0  0
 67 42  2  0  0  0
 67 43  2  0  0  0
 68 45  2  0  0  0
 68 46  2  0  0  0
 69 48  2  0  0  0
 69 49  2  0  0  0
 70 53  2  0  0  0
 70 54  2  0  0  0
 71 56  2  0  0  0
 71 57  2  0  0  0
 72 59  2  0  0  0
 72 60  2  0  0  0
M  CHG  6  44  -1  47  -1  50  -1  55  -1  58  -1  61  -1
M  END
> <rmsd>
0.813525081

$$$$
CHEMBL3350768


 54 59  0  0  0  0  0  0  0  0999 V2000
   -7.1624   -0.5211  -18.5154 C   0  0  0  0  0
   -6.6240    0.3272  -17.3890 C   0  0  0  0  0
   -5.5334   -0.5305  -16.7767 C   0  0  0  0  0
   -6.4159   -1.8267  -18.3822 C   0  0  0  0  0
   -6.0526   -2.3474  -19.7612 C   0  0  0  0  0
   -2.4604   -7.2220  -20.4584 C   0  0  0  0  0
   -5.5790   -7.5663  -18.5801 C   0  0  0  0  0
   -6.9361   -7.9419  -19.1721 C   0  0  0  0  0
   -7.4037   -9.2896  -18.6684 C   0  0  0  0  0
   -7.0819  -10.2013  -19.8207 C   0  0  0  0  0
   -7.0630   -9.2771  -21.0181 C   0  0  0  0  0
   -4.8384   -9.0116  -22.2019 C   0  0  0  0  0
   -4.8154  -10.7582  -23.4528 C   0  0  0  0  0
   -5.9656  -10.7509  -22.7392 C   0  0  0  0  0
   -6.6744  -12.7397  -23.7450 C   0  0  0  0  0
   -4.5620  -11.7894  -24.3487 C   0  0  0  0  0
   -7.4086  -14.8879  -24.8238 C   0  0  0  0  0
   -8.8962  -13.7578  -23.1627 C   0  0  0  0  0
   -2.7971   -9.2626  -23.6341 C   0  0  0  0  0
   -3.7564    0.5486  -15.3613 C   0  0  0  0  0
   -2.5394    1.4967  -16.8212 C   0  0  0  0  0
   -3.5462    0.8639  -17.4581 C   0  0  0  0  0
   -2.7642    1.5767  -19.5363 C   0  0  0  0  0
   -1.5990    2.2085  -17.5520 C   0  0  0  0  0
   -7.4927    1.9778  -16.1960 C   0  0  0  0  0
   -5.2497   -1.6073  -17.6330 O   0  0  0  0  0
   -5.4078   -3.5808  -19.6431 O   0  0  0  0  0
   -5.0943   -3.5567  -22.2631 O   0  0  0  0  0
   -4.9406   -5.9125  -21.0709 O   0  0  0  0  0
   -2.7728   -5.4384  -22.4751 O   0  0  0  0  0
   -2.1162   -8.6589  -18.1987 O   0  0  0  0  0
   -4.5938   -8.4789  -18.9818 O   0  0  0  0  0
   -6.8723   -7.9489  -20.5816 O   0  0  0  0  0
   -3.5018  -11.8319  -25.0268 O   0  0  0  0  0
   -8.0454  -11.1991  -19.9842 O   0  0  0  0  0
   -8.7833   -9.2285  -18.4457 O   0  0  0  0  0
   -3.2039   -6.3245  -17.8164 O   0  0  0  0  0
   -2.7705   -4.4169  -20.0644 O   0  0  0  0  0
   -7.3281   -4.5723  -21.3645 O   0  0  0  0  0
   -7.5987    0.6071  -16.4238 O   0  0  0  0  0
   -8.5374   -0.7473  -18.3990 O   0  0  0  0  0
   -5.6631   -4.3725  -21.1222 P   0  0  0  0  0
   -3.2493   -5.7016  -21.0643 P   0  0  0  0  0
   -3.0965   -7.6895  -18.8165 P   0  0  0  0  0
   -6.0018   -9.6688  -21.9444 N   0  0  0  0  0
   -4.0946   -9.6707  -23.1261 N   0  0  0  0  0
   -6.9078  -11.7156  -22.8648 N   0  0  0  0  0
   -5.5074  -12.7665  -24.4740 N   0  0  0  0  0
   -7.6471  -13.7815  -23.9078 N   0  0  0  0  0
   -4.3301    0.2609  -16.5564 N   0  0  0  0  0
   -2.6389    1.3191  -15.4908 N   0  0  0  0  0
   -3.6875    0.8796  -18.8064 N   0  0  0  0  0
   -1.7340    2.2343  -18.9116 N   0  0  0  0  0
   -0.5301    2.9005  -16.9151 N   0  0  0  0  0
  1  2  1  0  0  0
  1 41  1  0  0  0
  2  3  1  0  0  0
  2 40  1  0  0  0
  3 26  1  0  0  0
  3 50  1  0  0  0
  4 26  1  0  0  0
  4  5  1  0  0  0
  4  1  1  0  0  0
  5 27  1  0  0  0
  6 44  1  0  0  0
  7 32  1  0  0  0
  8  7  1  0  0  0
  8  9  1  0  0  0
  8 33  1  0  0  0
  9 10  1  0  0  0
  9 36  1  0  0  0
 10 11  1  0  0  0
 10 35  1  0  0  0
 11 33  1  0  0  0
 11 45  1  0  0  0
 14 47  1  0  0  0
 14 45  1  0  0  0
 15 48  1  0  0  0
 15 49  1  0  0  0
 16 13  1  0  0  0
 17 49  1  0  0  0
 18 49  1  0  0  0
 19 46  1  0  0  0
 21 51  1  0  0  0
 22 52  1  0  0  0
 22 50  1  0  0  0
 23 53  1  0  0  0
 24 54  1  0  0  0
 24 21  1  0  0  0
 25 40  1  0  0  0
 42 27  1  0  0  0
 42 29  1  0  0  0
 42 39  1  0  0  0
 43 29  1  0  0  0
 43  6  1  0  0  0
 43 38  1  0  0  0
 44 32  1  0  0  0
 44 37  1  0  0  0
 45 12  1  0  0  0
 46 13  1  0  0  0
 48 16  1  0  0  0
 50 20  1  0  0  0
 12 46  2  0  0  0
 13 14  2  0  0  0
 15 47  2  0  0  0
 16 34  2  0  0  0
 20 51  2  0  0  0
 21 22  2  0  0  0
 23 52  2  0  0  0
 24 53  2  0  0  0
 42 28  2  0  0  0
 43 30  2  0  0  0
 44 31  2  0  0  0
M  CHG  2  46   1  39  -1
M  END
> <rmsd>
0.722194552

$$$$
CHEMBL4761077


 44 50  0  0  0  0  0  0  0  0999 V2000
   -4.8768   -0.5245  -17.3402 N   0  0  0  0  0
   -3.0550   -1.7856  -16.8763 N   0  0  0  0  0
   -3.6908    1.4066  -18.1783 N   0  0  0  0  0
   -1.3232    1.1665  -18.1548 N   0  0  0  0  0
   -0.2499   -0.8527  -17.3488 N   0  0  0  0  0
   -6.2739   -6.3775  -19.5545 N   0  0  0  0  0
   -4.8505   -8.0228  -18.9308 N   0  0  0  0  0
   -4.6774   -4.5609  -19.4424 N   0  0  0  0  0
   -2.4940   -5.2356  -18.7813 N   0  0  0  0  0
   -4.4167   -1.7170  -16.8785 C   0  0  0  0  0
   -2.6873   -0.5869  -17.3660 C   0  0  0  0  0
   -3.7740    0.1640  -17.6439 C   0  0  0  0  0
   -2.4441    1.9091  -18.4318 C   0  0  0  0  0
   -1.4186   -0.0876  -17.6219 C   0  0  0  0  0
   -6.2610   -0.1182  -17.5457 C   0  0  0  0  0
   -8.2482   -0.9881  -16.8661 C   0  0  0  0  0
   -8.2870   -0.9841  -18.3777 C   0  0  0  0  0
   -6.8415   -0.8216  -18.7505 C   0  0  0  0  0
   -7.3606   -2.7248  -21.6595 C   0  0  0  0  0
   -8.1579   -3.9435  -21.2071 C   0  0  0  0  0
   -8.7230   -3.7186  -19.8185 C   0  0  0  0  0
   -7.9040   -4.6483  -18.9700 C   0  0  0  0  0
   -7.5062   -5.7121  -19.9615 C   0  0  0  0  0
   -6.1238   -7.7015  -19.2992 C   0  0  0  0  0
   -4.2121   -6.8389  -18.9685 C   0  0  0  0  0
   -5.0588   -5.8569  -19.3423 C   0  0  0  0  0
   -3.3750   -4.2539  -19.1602 C   0  0  0  0  0
   -2.8899   -6.5389  -18.6763 C   0  0  0  0  0
   -8.4310   -2.4022  -16.3226 C   0  0  0  0  0
   -7.0328   -0.4345  -16.4094 O   0  0  0  0  0
   -6.6872   -0.0500  -19.9094 O   0  0  0  0  0
   -4.2834   -0.8532  -20.5765 O   0  0  0  0  0
   -6.1784   -2.6143  -20.9219 O   0  0  0  0  0
  -10.0712   -4.0876  -19.8134 O   0  0  0  0  0
   -7.3442   -5.0989  -21.2171 O   0  0  0  0  0
   -1.9924   -7.5247  -18.2873 O   0  0  0  0  0
   -8.6447   -5.1845  -17.9105 O   0  0  0  0  0
   -8.6445   -5.0540  -15.2932 O   0  0  0  0  0
   -7.2786   -3.1676  -16.5337 O   0  0  0  0  0
   -6.4048   -5.7773  -16.4048 O   0  0  0  0  0
   -5.9188   -0.3710  -22.5432 O   0  0  0  0  0
   -9.0443    0.1099  -18.8063 O   0  0  0  0  0
   -5.7369   -0.9757  -20.9724 P   0  0  0  0  0
   -7.7760   -4.7926  -16.5044 P   0  0  0  0  0
  1 10  1  0  0  0
  6 24  1  0  0  0
 11  2  1  0  0  0
 12  3  1  0  0  0
 12  1  1  0  0  0
 13  4  1  0  0  0
 14  5  1  0  0  0
 14 11  1  0  0  0
 15  1  1  0  0  0
 15 30  1  0  0  0
 16 30  1  0  0  0
 16 17  1  0  0  0
 16 29  1  0  0  0
 17 18  1  0  0  0
 17 42  1  0  0  0
 18 31  1  0  0  0
 18 15  1  0  0  0
 19 33  1  0  0  0
 20 19  1  0  0  0
 20 21  1  0  0  0
 20 35  1  0  0  0
 21 34  1  0  0  0
 21 22  1  0  0  0
 22 23  1  0  0  0
 22 37  1  0  0  0
 23 35  1  0  0  0
 23  6  1  0  0  0
 25  7  1  0  0  0
 26  8  1  0  0  0
 26  6  1  0  0  0
 27  9  1  0  0  0
 28 36  1  0  0  0
 28 25  1  0  0  0
 29 39  1  0  0  0
 43 31  1  0  0  0
 43 33  1  0  0  0
 43 41  1  0  0  0
 44 37  1  0  0  0
 44 39  1  0  0  0
 44 40  1  0  0  0
 10  2  2  0  0  0
 11 12  2  0  0  0
 13  3  2  0  0  0
 14  4  2  0  0  0
 24  7  2  0  0  0
 25 26  2  0  0  0
 27  8  2  0  0  0
 28  9  2  0  0  0
 43 32  2  0  0  0
 44 38  2  0  0  0
M  END
> <rmsd>
0.770769894

$$$$
CHEMBL187642 PubChem-44395779


 55 61  0  0  0  0  0  0  0  0999 V2000
   -4.2231   -2.3730  -16.2545 C   0  0  0  0  0
   -6.1816   -1.6335  -16.8277 C   0  0  0  0  0
   -6.0460   -2.9074  -17.3949 C   0  0  0  0  0
   -4.7885   -3.3596  -17.0181 C   0  0  0  0  0
   -4.0988   -4.5494  -17.2700 C   0  0  0  0  0
   -2.8017   -4.6688  -16.7137 C   0  0  0  0  0
   -2.9392   -2.5469  -15.7195 C   0  0  0  0  0
   -2.0625   -5.8318  -16.9371 C   0  0  0  0  0
   -2.5953   -6.8826  -17.7041 C   0  0  0  0  0
   -3.8844   -6.7642  -18.2499 C   0  0  0  0  0
   -4.6300   -5.5963  -18.0266 C   0  0  0  0  0
   -5.6931   -7.7693  -19.6092 C   0  0  0  0  0
   -0.5527   -8.2538  -17.4221 C   0  0  0  0  0
   -7.0282   -3.6181  -18.2274 C   0  0  0  0  0
   -6.7436   -3.8932  -19.5686 C   0  0  0  0  0
   -7.6806   -4.5553  -20.3776 C   0  0  0  0  0
   -8.9168   -4.9381  -19.8340 C   0  0  0  0  0
   -9.1987   -4.6577  -18.4867 C   0  0  0  0  0
   -8.2600   -4.0013  -17.6887 C   0  0  0  0  0
  -11.1219   -6.0109  -20.1773 C   0  0  0  0  0
   -6.1729   -4.5007  -22.3398 C   0  0  0  0  0
   -7.3387   -0.7258  -17.0073 C   0  0  0  0  0
   -8.8763    1.0279  -19.0862 C   0  0  0  0  0
   -9.9213    1.5409  -20.0889 C   0  0  0  0  0
   -8.7831    0.6443  -20.5518 C   0  0  0  0  0
  -11.2569    0.8330  -20.0440 C   0  0  0  0  0
  -11.4516   -0.4533  -20.5787 C   0  0  0  0  0
  -12.7115   -1.0559  -20.5315 C   0  0  0  0  0
  -13.7949   -0.3821  -19.9597 C   0  0  0  0  0
  -13.6058    0.9069  -19.4361 C   0  0  0  0  0
  -12.3453    1.5090  -19.4821 C   0  0  0  0  0
  -16.2014   -0.3905  -19.3871 C   0  0  0  0  0
   -4.7211   -0.0225  -15.5359 C   0  0  0  0  0
   -4.4664    1.0286  -16.6164 C   0  0  0  0  0
   -3.3368    0.6408  -17.5115 C   0  0  0  0  0
   -2.0216    0.6375  -17.0374 C   0  0  0  0  0
   -0.9635    0.2417  -17.8720 C   0  0  0  0  0
   -1.2324   -0.1473  -19.1939 C   0  0  0  0  0
   -2.5552   -0.1306  -19.6663 C   0  0  0  0  0
   -3.6010    0.2622  -18.8292 C   0  0  0  0  0
   -0.3607   -0.9582  -21.3643 C   0  0  0  0  0
    0.7119    0.5916  -16.0833 C   0  0  0  0  0
   -5.0547   -1.3150  -16.1351 N   0  0  0  0  0
   -8.2751   -0.9567  -18.0620 N   0  0  0  0  0
   -9.3616   -0.1015  -18.2971 N   0  0  0  0  0
   -2.2830   -3.6818  -15.9741 O   0  0  0  0  0
   -2.4051   -1.6644  -14.9981 O   0  0  0  0  0
   -4.4040   -7.8163  -19.0118 O   0  0  0  0  0
   -1.8625   -8.0520  -17.9353 O   0  0  0  0  0
   -9.8470   -5.5943  -20.6476 O   0  0  0  0  0
   -7.4046   -4.8421  -21.7188 O   0  0  0  0  0
   -7.5020    0.2548  -16.2332 O   0  0  0  0  0
  -15.0423   -1.0113  -19.9273 O   0  0  0  0  0
   -0.1739   -0.5455  -20.0175 O   0  0  0  0  0
    0.3565    0.2239  -17.4091 O   0  0  0  0  0
  1 43  1  0  0  0
  2 22  1  0  0  0
  3  4  1  0  0  0
  3 14  1  0  0  0
  4  5  1  0  0  0
  6 46  1  0  0  0
  6  8  1  0  0  0
  7 46  1  0  0  0
  7  1  1  0  0  0
  9 10  1  0  0  0
  9 49  1  0  0  0
 10 48  1  0  0  0
 11  5  1  0  0  0
 12 48  1  0  0  0
 13 49  1  0  0  0
 15 16  1  0  0  0
 16 51  1  0  0  0
 17 18  1  0  0  0
 17 50  1  0  0  0
 19 14  1  0  0  0
 20 50  1  0  0  0
 21 51  1  0  0  0
 22 44  1  0  0  0
 23 45  1  0  0  0
 23 24  1  0  0  0
 24 25  1  0  0  0
 24 26  1  0  0  0
 25 23  1  0  0  0
 27 28  1  0  0  0
 29 30  1  0  0  0
 29 53  1  0  0  0
 31 26  1  0  0  0
 32 53  1  0  0  0
 33 43  1  0  0  0
 33 34  1  0  0  0
 34 35  1  0  0  0
 36 37  1  0  0  0
 37 55  1  0  0  0
 38 39  1  0  0  0
 38 54  1  0  0  0
 40 35  1  0  0  0
 41 54  1  0  0  0
 42 55  1  0  0  0
 43  2  1  0  0  0
 44 45  1  0  0  0
  2  3  2  0  0  0
  4  1  2  0  0  0
  5  6  2  0  0  0
  7 47  2  0  0  0
  8  9  2  0  0  0
 10 11  2  0  0  0
 14 15  2  0  0  0
 16 17  2  0  0  0
 18 19  2  0  0  0
 22 52  2  0  0  0
 26 27  2  0  0  0
 28 29  2  0  0  0
 30 31  2  0  0  0
 35 36  2  0  0  0
 37 38  2  0  0  0
 39 40  2  0  0  0
M  END
> <rmsd>
0.609351277

$$$$
CHEMBL3144366 PubChem-90663915


102116  0  0  0  0  0  0  0  0999 V2000
   -6.6074   -5.8107  -19.8421 N   0  0  0  0  0
   -7.9107   -4.4848  -18.5501 N   0  0  0  0  0
   -9.6905   -4.0280  -21.7078 N   0  0  0  0  0
   -7.8075   -5.4706  -21.9100 N   0  0  0  0  0
  -10.3029   -3.0172  -19.5915 N   0  0  0  0  0
   -3.3272   -0.1661  -18.1594 N   0  0  0  0  0
   -2.1073    1.3604  -17.0159 N   0  0  0  0  0
   -2.7073    3.3427  -20.0223 N   0  0  0  0  0
   -3.7075    1.1849  -20.1300 N   0  0  0  0  0
   -1.4246    4.0624  -18.0949 N   0  0  0  0  0
   -8.2226    4.2062  -14.3297 N   0  0  0  0  0
   -7.8495    4.3090  -12.0902 N   0  0  0  0  0
   -5.6844    7.0766  -13.0765 N   0  0  0  0  0
   -6.7483    6.0378  -14.9349 N   0  0  0  0  0
   -6.0523    6.3095  -10.8045 N   0  0  0  0  0
   -9.4190    9.5941  -10.9335 N   0  0  0  0  0
   -9.2687   11.4439   -9.6314 N   0  0  0  0  0
   -9.3330   13.1144  -12.8858 N   0  0  0  0  0
   -9.4696   10.7470  -13.0654 N   0  0  0  0  0
   -9.1705   14.2239  -10.7374 N   0  0  0  0  0
  -15.6521   10.7072   -6.1416 N   0  0  0  0  0
  -17.4372    9.8382   -7.2323 N   0  0  0  0  0
  -19.1922   11.0442   -4.2573 N   0  0  0  0  0
  -16.8508   11.4899   -4.1933 N   0  0  0  0  0
  -20.2233    9.9112   -6.1366 N   0  0  0  0  0
   -7.5799   -5.2813  -20.5888 C   0  0  0  0  0
   -8.3582   -4.4896  -19.8204 C   0  0  0  0  0
   -6.8212   -5.3019  -18.5987 C   0  0  0  0  0
   -9.4472   -3.8387  -20.3786 C   0  0  0  0  0
   -8.8793   -4.8303  -22.4714 C   0  0  0  0  0
   -5.5133   -6.6650  -20.2855 C   0  0  0  0  0
   -4.3495   -5.8130  -20.7532 C   0  0  0  0  0
   -4.2725   -2.7020  -21.8098 C   0  0  0  0  0
   -4.4815   -2.6223  -20.3070 C   0  0  0  0  0
   -3.9621   -1.4316  -18.5014 C   0  0  0  0  0
   -3.2090    0.9472  -18.8916 C   0  0  0  0  0
   -2.4750    1.8519  -18.2117 C   0  0  0  0  0
   -2.6438    0.1061  -17.0182 C   0  0  0  0  0
   -2.2078    3.0901  -18.7761 C   0  0  0  0  0
   -3.4494    2.4028  -20.6962 C   0  0  0  0  0
   -5.4649   -1.2647  -18.6582 C   0  0  0  0  0
   -6.7753    1.2595  -17.0594 C   0  0  0  0  0
   -7.9657    2.2152  -17.0611 C   0  0  0  0  0
   -8.7887    3.7323  -15.5941 C   0  0  0  0  0
   -7.3348    5.1775  -14.0647 C   0  0  0  0  0
   -7.1243    5.2413  -12.7301 C   0  0  0  0  0
   -8.5151    3.6865  -13.1056 C   0  0  0  0  0
   -6.2803    6.2075  -12.2057 C   0  0  0  0  0
   -5.9172    6.9972  -14.4282 C   0  0  0  0  0
   -8.3308    4.5321  -16.8025 C   0  0  0  0  0
   -9.8505    7.5075  -14.7709 C   0  0  0  0  0
   -9.8807    7.1725  -13.2912 C   0  0  0  0  0
   -9.5325    8.1897  -11.3144 C   0  0  0  0  0
   -9.3989   10.6840  -11.7115 C   0  0  0  0  0
   -9.3072   11.7856  -10.9349 C   0  0  0  0  0
   -9.3386   10.0821   -9.6662 C   0  0  0  0  0
   -9.2721   13.0420  -11.5212 C   0  0  0  0  0
   -9.4350   11.9822  -13.6513 C   0  0  0  0  0
  -10.9886    7.7610  -11.3076 C   0  0  0  0  0
  -12.9906    8.9517   -7.9617 C   0  0  0  0  0
  -12.6456    9.9187   -6.8483 C   0  0  0  0  0
  -14.2858   11.1098   -5.8126 C   0  0  0  0  0
  -16.7511   10.8820   -5.4012 C   0  0  0  0  0
  -17.8164   10.3719   -6.0540 C   0  0  0  0  0
  -16.0927   10.0646   -7.2538 C   0  0  0  0  0
  -19.0783   10.4418   -5.4781 C   0  0  0  0  0
  -18.0920   11.5667   -3.6201 C   0  0  0  0  0
  -13.7127   10.2063   -4.7488 C   0  0  0  0  0
  -12.8578    9.2501   -5.5099 C   0  0  0  0  0
  -11.2617    7.3916  -12.7327 C   0  0  0  0  0
   -7.5349    3.5526  -17.5942 C   0  0  0  0  0
   -5.7440   -1.8632  -20.0053 C   0  0  0  0  0
   -3.2705   -6.1198  -19.7615 C   0  0  0  0  0
   -3.6959   -7.4496  -19.2006 C   0  0  0  0  0
   -3.2045   -7.6025  -17.7713 C   0  0  0  0  0
   -3.9449   -6.2434  -22.0196 O   0  0  0  0  0
   -2.9022   -5.1528  -24.1403 O   0  0  0  0  0
   -3.1973   -3.5435  -22.1008 O   0  0  0  0  0
   -3.4190   -1.9419  -19.6944 O   0  0  0  0  0
   -6.1035   -2.0182  -17.6692 O   0  0  0  0  0
   -8.3829   -2.0463  -16.4109 O   0  0  0  0  0
   -7.0218    0.1679  -16.2176 O   0  0  0  0  0
   -8.4755    2.3728  -15.7617 O   0  0  0  0  0
   -9.4368    4.9398  -17.5543 O   0  0  0  0  0
  -10.8162    7.1152  -18.0017 O   0  0  0  0  0
  -10.4464    6.4719  -15.4916 O   0  0  0  0  0
   -8.9782    7.9819  -12.5917 O   0  0  0  0  0
  -11.1340    6.6309  -10.4977 O   0  0  0  0  0
  -12.6127    5.8330   -8.4987 O   0  0  0  0  0
  -11.8224    8.3336   -8.4265 O   0  0  0  0  0
  -13.4612   11.0664   -6.9567 O   0  0  0  0  0
  -11.6329    9.0957   -4.8601 O   0  0  0  0  0
  -13.7697    7.4280  -10.2214 O   0  0  0  0  0
   -8.3802    7.4773  -17.1290 O   0  0  0  0  0
   -8.3269   -0.5997  -18.5774 O   0  0  0  0  0
   -5.3690   -4.4936  -23.6185 O   0  0  0  0  0
   -5.0976   -7.5024  -19.2296 O   0  0  0  0  0
   -1.8164   -7.7236  -17.7521 O   0  0  0  0  0
   -3.8354   -4.8498  -22.9885 P   0  0  0  0  0
   -7.4786   -1.1352  -17.2079 P   0  0  0  0  0
   -9.7874    6.5295  -17.0596 P   0  0  0  0  0
  -12.3480    7.0326   -9.3839 P   0  0  0  0  0
  1 26  1  0  0  0
  6 36  1  0  0  0
 11 45  1  0  0  0
 16 54  1  0  0  0
 21 63  1  0  0  0
 26  4  1  0  0  0
 27  2  1  0  0  0
 27 29  1  0  0  0
 28  1  1  0  0  0
 29  5  1  0  0  0
 30  3  1  0  0  0
 31  1  1  0  0  0
 31 32  1  0  0  0
 31 97  1  0  0  0
 32 76  1  0  0  0
 32 73  1  0  0  0
 33 78  1  0  0  0
 34 33  1  0  0  0
 34 79  1  0  0  0
 35 79  1  0  0  0
 35  6  1  0  0  0
 35 41  1  0  0  0
 36  9  1  0  0  0
 37  7  1  0  0  0
 37 39  1  0  0  0
 38  6  1  0  0  0
 39 10  1  0  0  0
 40  8  1  0  0  0
 41 80  1  0  0  0
 41 72  1  0  0  0
 42 82  1  0  0  0
 43 42  1  0  0  0
 43 83  1  0  0  0
 44 83  1  0  0  0
 44 11  1  0  0  0
 44 50  1  0  0  0
 45 14  1  0  0  0
 46 12  1  0  0  0
 46 48  1  0  0  0
 47 11  1  0  0  0
 48 15  1  0  0  0
 49 13  1  0  0  0
 50 84  1  0  0  0
 50 71  1  0  0  0
 51 86  1  0  0  0
 52 51  1  0  0  0
 52 87  1  0  0  0
 53 87  1  0  0  0
 53 16  1  0  0  0
 53 59  1  0  0  0
 54 19  1  0  0  0
 55 17  1  0  0  0
 55 57  1  0  0  0
 56 16  1  0  0  0
 57 20  1  0  0  0
 58 18  1  0  0  0
 59 88  1  0  0  0
 59 70  1  0  0  0
 60 90  1  0  0  0
 61 60  1  0  0  0
 61 91  1  0  0  0
 62 91  1  0  0  0
 62 21  1  0  0  0
 62 68  1  0  0  0
 63 24  1  0  0  0
 64 22  1  0  0  0
 64 66  1  0  0  0
 65 21  1  0  0  0
 66 25  1  0  0  0
 67 23  1  0  0  0
 68 69  1  0  0  0
 69 92  1  0  0  0
 69 61  1  0  0  0
 70 52  1  0  0  0
 71 43  1  0  0  0
 72 34  1  0  0  0
 73 74  1  0  0  0
 74 97  1  0  0  0
 74 75  1  0  0  0
 75 98  1  0  0  0
 99 76  1  0  0  0
 99 78  1  0  0  0
 99 96  1  0  0  0
100 80  1  0  0  0
100 82  1  0  0  0
100 95  1  0  0  0
101 84  1  0  0  0
101 86  1  0  0  0
101 94  1  0  0  0
102 88  1  0  0  0
102 90  1  0  0  0
102 93  1  0  0  0
 26 27  2  0  0  0
 28  2  2  0  0  0
 29  3  2  0  0  0
 30  4  2  0  0  0
 36 37  2  0  0  0
 38  7  2  0  0  0
 39  8  2  0  0  0
 40  9  2  0  0  0
 45 46  2  0  0  0
 47 12  2  0  0  0
 48 13  2  0  0  0
 49 14  2  0  0  0
 54 55  2  0  0  0
 56 17  2  0  0  0
 57 18  2  0  0  0
 58 19  2  0  0  0
 63 64  2  0  0  0
 65 22  2  0  0  0
 66 23  2  0  0  0
 67 24  2  0  0  0
 99 77  2  0  0  0
100 81  2  0  0  0
101 85  2  0  0  0
102 89  2  0  0  0
M  END
> <rmsd>
0.583850622

$$$$
CHEMBL2057897 PubChem-11679765


 90101  0  0  0  0  0  0  0  0999 V2000
   -1.3837   14.2388  -17.3961 C   0  0  0  0  0
   -0.3056   15.2529  -17.0371 C   0  0  0  0  0
   -0.7644   16.1472  -15.8998 C   0  0  0  0  0
   -0.8048   17.5125  -16.5266 C   0  0  0  0  0
    0.0901   17.3620  -17.7324 C   0  0  0  0  0
    0.4117   19.2436  -19.3708 C   0  0  0  0  0
   -1.4526   19.2806  -20.3853 C   0  0  0  0  0
   -2.5568   19.5194  -21.1931 C   0  0  0  0  0
   -3.6803   17.7433  -20.0649 C   0  0  0  0  0
   -1.4959   18.2983  -19.4609 C   0  0  0  0  0
   -3.6551   12.1847  -17.7757 C   0  0  0  0  0
   -4.0555   11.1929  -18.8297 C   0  0  0  0  0
   -4.7481   10.1202  -18.0293 C   0  0  0  0  0
   -4.6152    8.7660  -18.7100 C   0  0  0  0  0
   -4.6949    4.6911  -18.2227 C   0  0  0  0  0
   -6.1882    4.4794  -18.2758 C   0  0  0  0  0
   -6.4614    3.6794  -17.0280 C   0  0  0  0  0
   -7.6935    2.7945  -17.1837 C   0  0  0  0  0
   -5.6313   -0.2002  -18.1268 C   0  0  0  0  0
   -5.5298   -2.4285  -17.9597 C   0  0  0  0  0
   -5.6224   -3.5730  -16.9839 C   0  0  0  0  0
   -4.3171   -4.3003  -17.1780 C   0  0  0  0  0
   -4.5175   -5.7798  -16.9154 C   0  0  0  0  0
   -4.4221   -2.8600  -18.9091 C   0  0  0  0  0
   -4.5871   -2.2114  -21.3336 C   0  0  0  0  0
   -6.0676   -3.5545  -22.0534 C   0  0  0  0  0
   -6.9942   -4.3002  -22.7674 C   0  0  0  0  0
   -7.4650   -5.5076  -20.7625 C   0  0  0  0  0
   -5.8716   -3.8052  -20.7423 C   0  0  0  0  0
   -4.2231    3.6585  -17.2130 C   0  0  0  0  0
   -3.3962    1.9687  -18.9060 C   0  0  0  0  0
   -1.4207    1.6174  -18.2168 C   0  0  0  0  0
   -0.1221    1.1962  -17.9718 C   0  0  0  0  0
   -0.0717    2.6690  -16.0984 C   0  0  0  0  0
   -1.9941    2.5338  -17.4086 C   0  0  0  0  0
   -3.5497   11.3213  -16.5292 C   0  0  0  0  0
   -1.2013   10.4525  -16.9178 C   0  0  0  0  0
   -0.1764   11.2636  -15.2454 C   0  0  0  0  0
    0.7288   11.7167  -14.2953 C   0  0  0  0  0
   -1.0741   12.8450  -13.2153 C   0  0  0  0  0
   -1.4781   11.6095  -15.1514 C   0  0  0  0  0
    0.1816   16.0882  -14.8721 O   0  0  0  0  0
   -0.3163   18.5077  -15.6746 O   0  0  0  0  0
    0.0379   16.0259  -18.1646 O   0  0  0  0  0
   -2.4548   14.8578  -18.0527 O   0  0  0  0  0
   -3.5243   14.5138  -15.6390 O   0  0  0  0  0
   -4.9061   15.8811  -17.3632 O   0  0  0  0  0
   -4.6477   13.1562  -17.5916 O   0  0  0  0  0
   -3.2859    8.3327  -18.6934 O   0  0  0  0  0
   -1.9765    6.0755  -18.8068 O   0  0  0  0  0
   -3.9632    6.3424  -20.4849 O   0  0  0  0  0
   -4.3740    5.9682  -17.7511 O   0  0  0  0  0
   -7.5528    1.9023  -18.2523 O   0  0  0  0  0
   -7.3486    0.3463  -16.0809 O   0  0  0  0  0
   -8.4324   -0.7237  -18.2038 O   0  0  0  0  0
   -5.1687   -1.2390  -17.3128 O   0  0  0  0  0
   -3.2985   -6.4503  -17.0274 O   0  0  0  0  0
   -2.4251   -8.8061  -17.7593 O   0  0  0  0  0
   -4.4672   -7.8743  -19.1012 O   0  0  0  0  0
   -4.7168   -8.7745  -16.4972 O   0  0  0  0  0
   -3.8906   -4.0988  -18.5007 O   0  0  0  0  0
   -5.7337   -3.1296  -15.6612 O   0  0  0  0  0
   -5.3221    2.9087  -16.7485 O   0  0  0  0  0
   -6.8972    5.6849  -18.2540 O   0  0  0  0  0
   -4.1896   10.0812  -16.7377 O   0  0  0  0  0
   -4.9296   11.7493  -19.7698 O   0  0  0  0  0
   -0.3297   18.2567  -18.8052 N   0  0  0  0  0
   -0.2597   19.9027  -20.3579 N   0  0  0  0  0
   -2.5494   20.5448  -22.1795 N   0  0  0  0  0
   -3.6591   18.7337  -21.0139 N   0  0  0  0  0
   -2.5887   17.5171  -19.2736 N   0  0  0  0  0
   -4.9422   -2.9697  -20.2656 N   0  0  0  0  0
   -5.2714   -2.5489  -22.4641 N   0  0  0  0  0
   -7.2317   -4.0631  -24.1481 N   0  0  0  0  0
   -7.6835   -5.2724  -22.0972 N   0  0  0  0  0
   -6.5471   -4.7688  -20.0697 N   0  0  0  0  0
   -3.2407    2.7690  -17.8197 N   0  0  0  0  0
   -2.2800    1.2367  -19.1796 N   0  0  0  0  0
    0.5075    0.2202  -18.7931 N   0  0  0  0  0
    0.5328    1.7400  -16.9046 N   0  0  0  0  0
   -1.3548    3.0747  -16.3441 N   0  0  0  0  0
   -2.1456   11.1120  -16.1947 N   0  0  0  0  0
    0.0371   10.5260  -16.3513 N   0  0  0  0  0
    2.1112   11.3883  -14.3697 N   0  0  0  0  0
    0.2537   12.5052  -13.2862 N   0  0  0  0  0
   -1.9566   12.3993  -14.1601 N   0  0  0  0  0
   -3.8521   14.5835  -17.1164 P   0  0  0  0  0
   -3.3662    6.6574  -18.9322 P   0  0  0  0  0
   -7.2798    0.3538  -17.5953 P   0  0  0  0  0
   -3.6925   -7.9972  -17.5996 P   0  0  0  0  0
  1 45  1  0  0  0
  2  1  1  0  0  0
  2  3  1  0  0  0
  2 44  1  0  0  0
  3 42  1  0  0  0
  3  4  1  0  0  0
  4 43  1  0  0  0
  4  5  1  0  0  0
  5 44  1  0  0  0
  5 67  1  0  0  0
  7 68  1  0  0  0
  8 69  1  0  0  0
  8 70  1  0  0  0
  9 71  1  0  0  0
 10 67  1  0  0  0
 10  7  1  0  0  0
 11 48  1  0  0  0
 11 12  1  0  0  0
 12 13  1  0  0  0
 12 66  1  0  0  0
 13 14  1  0  0  0
 13 65  1  0  0  0
 14 49  1  0  0  0
 15 52  1  0  0  0
 15 16  1  0  0  0
 16 17  1  0  0  0
 16 64  1  0  0  0
 17 18  1  0  0  0
 17 63  1  0  0  0
 18 53  1  0  0  0
 19 56  1  0  0  0
 20 56  1  0  0  0
 20 21  1  0  0  0
 21 22  1  0  0  0
 21 62  1  0  0  0
 22 23  1  0  0  0
 22 61  1  0  0  0
 23 57  1  0  0  0
 24 61  1  0  0  0
 24 72  1  0  0  0
 24 20  1  0  0  0
 26 73  1  0  0  0
 27 74  1  0  0  0
 27 75  1  0  0  0
 28 76  1  0  0  0
 29 72  1  0  0  0
 29 26  1  0  0  0
 30 63  1  0  0  0
 30 77  1  0  0  0
 30 15  1  0  0  0
 32 78  1  0  0  0
 33 79  1  0  0  0
 33 80  1  0  0  0
 34 81  1  0  0  0
 35 77  1  0  0  0
 35 32  1  0  0  0
 36 65  1  0  0  0
 36 82  1  0  0  0
 36 11  1  0  0  0
 38 83  1  0  0  0
 39 84  1  0  0  0
 39 85  1  0  0  0
 40 86  1  0  0  0
 41 82  1  0  0  0
 41 38  1  0  0  0
 67  6  1  0  0  0
 72 25  1  0  0  0
 77 31  1  0  0  0
 82 37  1  0  0  0
 87 45  1  0  0  0
 87 47  1  0  0  0
 87 48  1  0  0  0
 88 49  1  0  0  0
 88 51  1  0  0  0
 88 52  1  0  0  0
 89 53  1  0  0  0
 89 55  1  0  0  0
 89 19  1  0  0  0
 90 57  1  0  0  0
 90 59  1  0  0  0
 90 60  1  0  0  0
  6 68  2  0  0  0
  7  8  2  0  0  0
  9 70  2  0  0  0
 10 71  2  0  0  0
 25 73  2  0  0  0
 26 27  2  0  0  0
 28 75  2  0  0  0
 29 76  2  0  0  0
 31 78  2  0  0  0
 32 33  2  0  0  0
 34 80  2  0  0  0
 35 81  2  0  0  0
 37 83  2  0  0  0
 38 39  2  0  0  0
 40 85  2  0  0  0
 41 86  2  0  0  0
 87 46  2  0  0  0
 88 50  2  0  0  0
 89 54  2  0  0  0
 90 58  2  0  0  0
M  END
> <rmsd>
0.628227413

$$$$
CHEMBL4084933 PubChem-137647340


 84 90  0  0  0  0  0  0  0  0999 V2000
   -9.1777    1.9105  -17.6546 O   0  0  0  0  0
   -9.5164    0.3527  -15.5982 O   0  0  0  0  0
   -8.6645   -0.6400  -17.6790 O   0  0  0  0  0
   -7.0295    0.8644  -16.2536 O   0  0  0  0  0
   -5.0500    0.8841  -20.7212 O   0  0  0  0  0
   -7.4598   -5.7189  -22.0228 O   0  0  0  0  0
   -7.7544   -6.0405  -24.5859 O   0  0  0  0  0
   -5.0582   -9.0199  -24.6105 O   0  0  0  0  0
   -4.1724   -8.6421  -19.9402 O   0  0  0  0  0
   -5.1239   -6.7580  -18.3162 O   0  0  0  0  0
   -5.3478   -9.1161  -17.6459 O   0  0  0  0  0
   -3.0093   -8.0142  -17.5063 O   0  0  0  0  0
   -4.3953  -11.5665  -30.4792 O   0  0  0  0  0
   -3.9128  -11.9022  -33.0314 O   0  0  0  0  0
   -2.6978  -10.1256  -31.8688 O   0  0  0  0  0
   -5.2256   -9.7437  -32.4082 O   0  0  0  0  0
   -4.8163  -12.9115  -28.0989 O   0  0  0  0  0
   -5.0677  -15.2984  -27.0211 O   0  0  0  0  0
   -3.6838  -13.6418  -25.8493 O   0  0  0  0  0
   -6.2726  -13.3603  -25.7843 O   0  0  0  0  0
   -7.2406   -7.2618  -26.9522 O   0  0  0  0  0
   -9.7257   -7.9537  -26.4514 O   0  0  0  0  0
   -8.3073   -9.5511  -27.6597 O   0  0  0  0  0
   -9.1594   -7.4487  -28.9309 O   0  0  0  0  0
   -2.5026    1.4611  -20.7722 O   0  0  0  0  0
   -2.4615    2.0374  -16.8187 O   0  0  0  0  0
    3.0828    4.1922  -14.4709 O   0  0  0  0  0
    5.1864    5.6788  -13.9963 O   0  0  0  0  0
    5.0920    4.4652  -16.1336 O   0  0  0  0  0
    3.5630    6.5527  -15.8379 O   0  0  0  0  0
    1.0006    2.6097  -13.2345 O   0  0  0  0  0
    3.2732    1.2554  -13.2128 O   0  0  0  0  0
    1.9583    1.3716  -11.1305 O   0  0  0  0  0
    3.2618    3.4916  -11.8570 O   0  0  0  0  0
   -0.1589    2.1838  -19.6486 O   0  0  0  0  0
    0.4661   -0.2594  -20.3769 O   0  0  0  0  0
    2.2027    1.4740  -20.5189 O   0  0  0  0  0
    1.5539    0.5762  -18.1722 O   0  0  0  0  0
   -8.6276    0.5731  -16.7911 S   0  0  0  0  0
   -4.4647   -8.1152  -18.3333 S   0  0  0  0  0
   -4.0149  -10.8354  -31.9784 S   0  0  0  0  0
   -4.9304  -13.8422  -26.6664 S   0  0  0  0  0
   -8.6333   -8.0955  -27.4742 S   0  0  0  0  0
    4.2858    5.2205  -15.1099 S   0  0  0  0  0
    2.3904    2.1365  -12.3519 S   0  0  0  0  0
    1.0320    0.9651  -19.7205 S   0  0  0  0  0
   -5.9351    1.0617  -17.1061 C   0  0  0  0  0
   -6.0359    0.8885  -18.4921 C   0  0  0  0  0
   -4.9255    1.0698  -19.3361 C   0  0  0  0  0
   -6.2834    0.5703  -21.3678 C   0  0  0  0  0
   -6.6238   -0.8740  -21.2073 C   0  0  0  0  0
   -7.8699   -1.2308  -20.6908 C   0  0  0  0  0
   -8.2199   -2.5792  -20.5575 C   0  0  0  0  0
   -7.3212   -3.5764  -20.9531 C   0  0  0  0  0
   -6.0685   -3.2179  -21.4677 C   0  0  0  0  0
   -5.7236   -1.8684  -21.6037 C   0  0  0  0  0
   -7.7014   -5.0121  -20.8089 C   0  0  0  0  0
   -6.5292   -6.7597  -22.1277 C   0  0  0  0  0
   -6.2648   -7.3649  -23.3805 C   0  0  0  0  0
   -6.9013   -6.9702  -24.5762 C   0  0  0  0  0
   -6.5909   -7.6288  -25.7717 C   0  0  0  0  0
   -5.6370   -8.6669  -25.7558 C   0  0  0  0  0
   -5.3228   -8.4221  -23.4513 C   0  0  0  0  0
   -4.6475   -8.8342  -22.2987 C   0  0  0  0  0
   -4.8980   -8.2265  -21.0626 C   0  0  0  0  0
   -5.8455   -7.2041  -20.9888 C   0  0  0  0  0
   -5.2728   -9.3957  -26.9834 C   0  0  0  0  0
   -5.1663  -10.7901  -26.9477 C   0  0  0  0  0
   -4.8841  -11.5180  -28.1127 C   0  0  0  0  0
   -4.6812  -10.8366  -29.3213 C   0  0  0  0  0
   -4.7721   -9.4380  -29.3513 C   0  0  0  0  0
   -5.0703   -8.7209  -28.1915 C   0  0  0  0  0
   -3.6817    1.4412  -18.7693 C   0  0  0  0  0
   -2.5066    1.6353  -19.5249 C   0  0  0  0  0
   -1.3252    2.0350  -18.8942 C   0  0  0  0  0
   -1.3427    2.2702  -17.5045 C   0  0  0  0  0
   -3.5960    1.6403  -17.3737 C   0  0  0  0  0
   -4.7140    1.4416  -16.5578 C   0  0  0  0  0
   -0.1588    2.7495  -16.7453 C   0  0  0  0  0
   -0.0814    2.4920  -15.3645 C   0  0  0  0  0
    1.0024    2.9346  -14.6031 C   0  0  0  0  0
    2.0249    3.6857  -15.2256 C   0  0  0  0  0
    1.9479    3.9479  -16.6021 C   0  0  0  0  0
    0.8654    3.4913  -17.3536 C   0  0  0  0  0
 39  1  1  0  0  0
 39  4  1  0  0  0
 40  9  1  0  0  0
 40 12  1  0  0  0
 41 13  1  0  0  0
 41 16  1  0  0  0
 42 17  1  0  0  0
 42 20  1  0  0  0
 43 21  1  0  0  0
 43 24  1  0  0  0
 44 27  1  0  0  0
 44 30  1  0  0  0
 45 31  1  0  0  0
 45 34  1  0  0  0
 46 35  1  0  0  0
 46 38  1  0  0  0
 47  4  1  0  0  0
 48 49  1  0  0  0
 49  5  1  0  0  0
 50  5  1  0  0  0
 50 51  1  0  0  0
 52 53  1  0  0  0
 54 55  1  0  0  0
 56 51  1  0  0  0
 57 54  1  0  0  0
 57  6  1  0  0  0
 58  6  1  0  0  0
 59 60  1  0  0  0
 60 61  1  0  0  0
 61 21  1  0  0  0
 62  8  1  0  0  0
 62 67  1  0  0  0
 63  8  1  0  0  0
 63 59  1  0  0  0
 64 65  1  0  0  0
 65  9  1  0  0  0
 66 58  1  0  0  0
 68 69  1  0  0  0
 69 17  1  0  0  0
 70 71  1  0  0  0
 70 13  1  0  0  0
 72 67  1  0  0  0
 73 74  1  0  0  0
 74 75  1  0  0  0
 75 35  1  0  0  0
 76 26  1  0  0  0
 76 79  1  0  0  0
 77 26  1  0  0  0
 77 73  1  0  0  0
 78 47  1  0  0  0
 80 81  1  0  0  0
 81 31  1  0  0  0
 82 83  1  0  0  0
 82 27  1  0  0  0
 84 79  1  0  0  0
 39  2  2  0  0  0
 39  3  2  0  0  0
 40 10  2  0  0  0
 40 11  2  0  0  0
 41 14  2  0  0  0
 41 15  2  0  0  0
 42 18  2  0  0  0
 42 19  2  0  0  0
 43 22  2  0  0  0
 43 23  2  0  0  0
 44 28  2  0  0  0
 44 29  2  0  0  0
 45 32  2  0  0  0
 45 33  2  0  0  0
 46 36  2  0  0  0
 46 37  2  0  0  0
 47 48  2  0  0  0
 49 73  2  0  0  0
 51 52  2  0  0  0
 53 54  2  0  0  0
 55 56  2  0  0  0
 58 59  2  0  0  0
 60  7  2  0  0  0
 61 62  2  0  0  0
 63 64  2  0  0  0
 65 66  2  0  0  0
 67 68  2  0  0  0
 69 70  2  0  0  0
 71 72  2  0  0  0
 74 25  2  0  0  0
 75 76  2  0  0  0
 77 78  2  0  0  0
 79 80  2  0  0  0
 81 82  2  0  0  0
 83 84  2  0  0  0
M  CHG  8   1  -1  12  -1  16  -1  20  -1  24  -1  30  -1  34  -1  38  -1
M  END
> <rmsd>
0.742976665

$$$$
CHEMBL4116467 PubChem-137630052


 84 90  0  0  0  0  0  0  0  0999 V2000
   -9.1777    1.9105  -17.6546 O   0  0  0  0  0
   -9.5164    0.3527  -15.5982 O   0  0  0  0  0
   -8.6645   -0.6400  -17.6790 O   0  0  0  0  0
   -7.0295    0.8644  -16.2536 O   0  0  0  0  0
   -5.0500    0.8841  -20.7212 O   0  0  0  0  0
   -7.4598   -5.7189  -22.0228 O   0  0  0  0  0
   -7.7544   -6.0405  -24.5859 O   0  0  0  0  0
   -5.0582   -9.0199  -24.6105 O   0  0  0  0  0
   -4.1724   -8.6421  -19.9402 O   0  0  0  0  0
   -5.1239   -6.7580  -18.3162 O   0  0  0  0  0
   -5.3478   -9.1161  -17.6459 O   0  0  0  0  0
   -3.0093   -8.0142  -17.5063 O   0  0  0  0  0
   -4.3953  -11.5665  -30.4792 O   0  0  0  0  0
   -3.9128  -11.9022  -33.0314 O   0  0  0  0  0
   -2.6978  -10.1256  -31.8688 O   0  0  0  0  0
   -5.2256   -9.7437  -32.4082 O   0  0  0  0  0
   -4.8163  -12.9115  -28.0989 O   0  0  0  0  0
   -5.0677  -15.2984  -27.0211 O   0  0  0  0  0
   -3.6838  -13.6418  -25.8493 O   0  0  0  0  0
   -6.2726  -13.3603  -25.7843 O   0  0  0  0  0
   -7.2406   -7.2618  -26.9522 O   0  0  0  0  0
   -9.7257   -7.9537  -26.4514 O   0  0  0  0  0
   -8.3073   -9.5511  -27.6597 O   0  0  0  0  0
   -9.1594   -7.4487  -28.9309 O   0  0  0  0  0
   -2.5026    1.4611  -20.7722 O   0  0  0  0  0
   -2.4615    2.0374  -16.8187 O   0  0  0  0  0
    3.0828    4.1922  -14.4709 O   0  0  0  0  0
    5.1864    5.6788  -13.9963 O   0  0  0  0  0
    5.0920    4.4652  -16.1336 O   0  0  0  0  0
    3.5630    6.5527  -15.8379 O   0  0  0  0  0
    1.0006    2.6097  -13.2345 O   0  0  0  0  0
    3.2732    1.2554  -13.2128 O   0  0  0  0  0
    1.9583    1.3716  -11.1305 O   0  0  0  0  0
    3.2618    3.4916  -11.8570 O   0  0  0  0  0
   -0.1589    2.1838  -19.6486 O   0  0  0  0  0
    0.4661   -0.2594  -20.3769 O   0  0  0  0  0
    2.2027    1.4740  -20.5189 O   0  0  0  0  0
    1.5539    0.5762  -18.1722 O   0  0  0  0  0
   -8.6276    0.5731  -16.7911 S   0  0  0  0  0
   -4.4647   -8.1152  -18.3333 S   0  0  0  0  0
   -4.0149  -10.8354  -31.9784 S   0  0  0  0  0
   -4.9304  -13.8422  -26.6664 S   0  0  0  0  0
   -8.6333   -8.0955  -27.4742 S   0  0  0  0  0
    4.2858    5.2205  -15.1099 S   0  0  0  0  0
    2.3904    2.1365  -12.3519 S   0  0  0  0  0
    1.0320    0.9651  -19.7205 S   0  0  0  0  0
   -5.9351    1.0617  -17.1061 C   0  0  0  0  0
   -6.0359    0.8885  -18.4921 C   0  0  0  0  0
   -4.9255    1.0698  -19.3361 C   0  0  0  0  0
   -6.2834    0.5703  -21.3678 C   0  0  0  0  0
   -6.6238   -0.8740  -21.2073 C   0  0  0  0  0
   -7.8699   -1.2308  -20.6908 C   0  0  0  0  0
   -8.2199   -2.5792  -20.5575 C   0  0  0  0  0
   -7.3212   -3.5764  -20.9531 C   0  0  0  0  0
   -6.0685   -3.2179  -21.4677 C   0  0  0  0  0
   -5.7236   -1.8684  -21.6037 C   0  0  0  0  0
   -7.7014   -5.0121  -20.8089 C   0  0  0  0  0
   -6.5292   -6.7597  -22.1277 C   0  0  0  0  0
   -6.2648   -7.3649  -23.3805 C   0  0  0  0  0
   -6.9013   -6.9702  -24.5762 C   0  0  0  0  0
   -6.5909   -7.6288  -25.7717 C   0  0  0  0  0
   -5.6370   -8.6669  -25.7558 C   0  0  0  0  0
   -5.3228   -8.4221  -23.4513 C   0  0  0  0  0
   -4.6475   -8.8342  -22.2987 C   0  0  0  0  0
   -4.8980   -8.2265  -21.0626 C   0  0  0  0  0
   -5.8455   -7.2041  -20.9888 C   0  0  0  0  0
   -5.2728   -9.3957  -26.9834 C   0  0  0  0  0
   -5.1663  -10.7901  -26.9477 C   0  0  0  0  0
   -4.8841  -11.5180  -28.1127 C   0  0  0  0  0
   -4.6812  -10.8366  -29.3213 C   0  0  0  0  0
   -4.7721   -9.4380  -29.3513 C   0  0  0  0  0
   -5.0703   -8.7209  -28.1915 C   0  0  0  0  0
   -3.6817    1.4412  -18.7693 C   0  0  0  0  0
   -2.5066    1.6353  -19.5249 C   0  0  0  0  0
   -1.3252    2.0350  -18.8942 C   0  0  0  0  0
   -1.3427    2.2702  -17.5045 C   0  0  0  0  0
   -3.5960    1.6403  -17.3737 C   0  0  0  0  0
   -4.7140    1.4416  -16.5578 C   0  0  0  0  0
   -0.1588    2.7495  -16.7453 C   0  0  0  0  0
   -0.0814    2.4920  -15.3645 C   0  0  0  0  0
    1.0024    2.9346  -14.6031 C   0  0  0  0  0
    2.0249    3.6857  -15.2256 C   0  0  0  0  0
    1.9479    3.9479  -16.6021 C   0  0  0  0  0
    0.8654    3.4913  -17.3536 C   0  0  0  0  0
 39  1  1  0  0  0
 39  4  1  0  0  0
 40  9  1  0  0  0
 40 12  1  0  0  0
 41 13  1  0  0  0
 41 16  1  0  0  0
 42 17  1  0  0  0
 42 20  1  0  0  0
 43 21  1  0  0  0
 43 24  1  0  0  0
 44 27  1  0  0  0
 44 30  1  0  0  0
 45 31  1  0  0  0
 45 34  1  0  0  0
 46 35  1  0  0  0
 46 38  1  0  0  0
 47  4  1  0  0  0
 48 49  1  0  0  0
 49  5  1  0  0  0
 50  5  1  0  0  0
 50 51  1  0  0  0
 52 53  1  0  0  0
 54 55  1  0  0  0
 56 51  1  0  0  0
 57 54  1  0  0  0
 57  6  1  0  0  0
 58  6  1  0  0  0
 59 60  1  0  0  0
 60 61  1  0  0  0
 61 21  1  0  0  0
 62  8  1  0  0  0
 62 67  1  0  0  0
 63  8  1  0  0  0
 63 59  1  0  0  0
 64 65  1  0  0  0
 65  9  1  0  0  0
 66 58  1  0  0  0
 68 69  1  0  0  0
 69 17  1  0  0  0
 70 71  1  0  0  0
 70 13  1  0  0  0
 72 67  1  0  0  0
 73 74  1  0  0  0
 74 75  1  0  0  0
 75 35  1  0  0  0
 76 26  1  0  0  0
 76 79  1  0  0  0
 77 26  1  0  0  0
 77 73  1  0  0  0
 78 47  1  0  0  0
 80 81  1  0  0  0
 81 31  1  0  0  0
 82 83  1  0  0  0
 82 27  1  0  0  0
 84 79  1  0  0  0
 39  2  2  0  0  0
 39  3  2  0  0  0
 40 10  2  0  0  0
 40 11  2  0  0  0
 41 14  2  0  0  0
 41 15  2  0  0  0
 42 18  2  0  0  0
 42 19  2  0  0  0
 43 22  2  0  0  0
 43 23  2  0  0  0
 44 28  2  0  0  0
 44 29  2  0  0  0
 45 32  2  0  0  0
 45 33  2  0  0  0
 46 36  2  0  0  0
 46 37  2  0  0  0
 47 48  2  0  0  0
 49 73  2  0  0  0
 51 52  2  0  0  0
 53 54  2  0  0  0
 55 56  2  0  0  0
 58 59  2  0  0  0
 60  7  2  0  0  0
 61 62  2  0  0  0
 63 64  2  0  0  0
 65 66  2  0  0  0
 67 68  2  0  0  0
 69 70  2  0  0  0
 71 72  2  0  0  0
 74 25  2  0  0  0
 75 76  2  0  0  0
 77 78  2  0  0  0
 79 80  2  0  0  0
 81 82  2  0  0  0
 83 84  2  0  0  0
M  END
> <rmsd>
0.742976665

$$$$
CHEMBL1161866 PubChem-44415182


 44 48  0  0  0  0  0  0  0  0999 V2000
   -3.0987    0.9443  -20.1227 C   0  0  0  0  0
   -1.9852    2.5326  -18.7325 C   0  0  0  0  0
   -2.7140    2.0429  -17.6584 C   0  0  0  0  0
   -3.5936    1.0365  -17.8448 C   0  0  0  0  0
   -3.6295    1.6066  -15.7925 C   0  0  0  0  0
   -5.2282   -0.2356  -16.3993 C   0  0  0  0  0
   -6.0021   -1.8902  -17.7430 C   0  0  0  0  0
   -6.8204   -0.6706  -18.0870 C   0  0  0  0  0
   -6.5602    0.2540  -16.9323 C   0  0  0  0  0
   -5.5136   -2.5774  -19.0068 C   0  0  0  0  0
   -3.7866   -6.7649  -18.1017 C   0  0  0  0  0
   -2.4192   -7.4455  -18.0805 C   0  0  0  0  0
   -1.5232   -9.4819  -18.5196 C   0  0  0  0  0
   -0.7116   -8.4573  -19.3078 C   0  0  0  0  0
   -1.5903   -7.2408  -19.3407 C   0  0  0  0  0
   -1.6804  -11.8677  -19.2101 C   0  0  0  0  0
   -2.1884  -12.8354  -19.9722 C   0  0  0  0  0
   -3.2019  -12.5534  -21.0512 C   0  0  0  0  0
   -3.7437  -11.1413  -21.0416 C   0  0  0  0  0
   -3.1947  -10.2024  -20.2630 C   0  0  0  0  0
   -4.8560  -10.7880  -21.9421 C   0  0  0  0  0
   -2.1956    1.9644  -19.9572 N   0  0  0  0  0
   -3.8128    0.4700  -19.0570 N   0  0  0  0  0
   -4.1794    0.7389  -16.6785 N   0  0  0  0  0
   -2.7087    2.4307  -16.3698 N   0  0  0  0  0
   -2.1163  -10.5142  -19.3681 N   0  0  0  0  0
   -5.4562  -11.7839  -22.7643 N   0  0  0  0  0
   -1.0536    3.5977  -18.5756 N   0  0  0  0  0
   -4.8983   -1.4827  -16.9729 O   0  0  0  0  0
   -7.5264    0.1002  -15.9336 O   0  0  0  0  0
   -8.1737   -0.9976  -18.2045 O   0  0  0  0  0
   -6.5900   -3.1584  -19.6814 O   0  0  0  0  0
   -7.0028   -4.5984  -21.8298 O   0  0  0  0  0
   -4.8350   -5.2043  -20.4408 O   0  0  0  0  0
   -6.7218   -7.0497  -20.4494 O   0  0  0  0  0
   -6.5862   -5.5862  -18.2843 O   0  0  0  0  0
   -4.6862   -7.4901  -18.8899 O   0  0  0  0  0
   -2.5341   -8.8201  -17.7912 O   0  0  0  0  0
   -2.3955   -7.2460  -20.4866 O   0  0  0  0  0
   -0.3600   -8.9018  -20.5877 O   0  0  0  0  0
   -5.2902   -9.6055  -21.9920 O   0  0  0  0  0
   -5.0346   -2.9021  -21.9468 O   0  0  0  0  0
   -5.9021   -3.9928  -20.9870 P   0  0  0  0  0
   -5.7407   -6.3376  -19.5451 P   0  0  0  0  0
  1 23  1  0  0  0
  2 22  1  0  0  0
  2 28  1  0  0  0
  3  4  1  0  0  0
  3 25  1  0  0  0
  4 24  1  0  0  0
  6 24  1  0  0  0
  6 29  1  0  0  0
  7 29  1  0  0  0
  7  8  1  0  0  0
  7 10  1  0  0  0
  8  9  1  0  0  0
  8 31  1  0  0  0
  9 30  1  0  0  0
  9  6  1  0  0  0
 10 32  1  0  0  0
 11 37  1  0  0  0
 11 12  1  0  0  0
 12 38  1  0  0  0
 13 38  1  0  0  0
 13 14  1  0  0  0
 13 26  1  0  0  0
 14 15  1  0  0  0
 14 40  1  0  0  0
 15 39  1  0  0  0
 15 12  1  0  0  0
 18 17  1  0  0  0
 18 19  1  0  0  0
 19 21  1  0  0  0
 20 26  1  0  0  0
 21 27  1  0  0  0
 24  5  1  0  0  0
 26 16  1  0  0  0
 43 32  1  0  0  0
 43 34  1  0  0  0
 43 42  1  0  0  0
 44 34  1  0  0  0
 44 36  1  0  0  0
 44 37  1  0  0  0
  1 22  2  0  0  0
  2  3  2  0  0  0
  4 23  2  0  0  0
  5 25  2  0  0  0
 16 17  2  0  0  0
 19 20  2  0  0  0
 21 41  2  0  0  0
 43 33  2  0  0  0
 44 35  2  0  0  0
M  END
> <rmsd>
0.896133363

$$$$
CHEMBL2407509 PubChem-73355094


 77 78  0  0  0  0  0  0  0  0999 V2000
    7.2069  -10.8928  -12.7887 C   0  0  0  0  0
    6.2549   -9.7197  -12.8781 C   0  0  0  0  0
    7.0212   -8.4184  -13.0354 C   0  0  0  0  0
    7.5048   -8.2596  -14.4677 C   0  0  0  0  0
    8.2357   -6.9312  -14.6471 C   0  0  0  0  0
    7.2834   -5.7494  -14.5443 C   0  0  0  0  0
    6.3407   -5.7156  -15.7332 C   0  0  0  0  0
    5.2175   -4.7386  -15.4393 C   0  0  0  0  0
    3.8844   -5.3731  -15.7900 C   0  0  0  0  0
    3.5211   -6.4464  -14.7830 C   0  0  0  0  0
    2.2271   -7.1314  -15.1913 C   0  0  0  0  0
    1.0707   -6.6889  -14.3040 C   0  0  0  0  0
    0.6467   -5.2361  -14.5588 C   0  0  0  0  0
   -0.0067   -5.0504  -15.9387 C   0  0  0  0  0
   -0.7731   -3.7310  -16.0208 C   0  0  0  0  0
   -1.8056   -3.7065  -17.1535 C   0  0  0  0  0
   -1.1366   -3.3944  -18.4851 C   0  0  0  0  0
   -2.1089   -2.7900  -19.4422 C   0  0  0  0  0
   -4.3197   -2.9545  -20.6825 C   0  0  0  0  0
   -5.2804   -4.0544  -21.0849 C   0  0  0  0  0
   -5.0551   -1.8199  -20.0490 C   0  0  0  0  0
   -6.4366   -0.8890  -18.1618 C   0  0  0  0  0
   -5.5870   -0.3339  -17.0083 C   0  0  0  0  0
   -4.3368    0.3219  -17.5071 C   0  0  0  0  0
   -4.4056    1.4687  -18.3143 C   0  0  0  0  0
   -3.2318    2.0749  -18.7748 C   0  0  0  0  0
   -1.9844    1.5359  -18.4274 C   0  0  0  0  0
   -1.9154    0.3975  -17.6148 C   0  0  0  0  0
   -3.0883   -0.2095  -17.1549 C   0  0  0  0  0
   -7.8018   -1.3001  -17.7076 C   0  0  0  0  0
   -9.2043   -2.3078  -15.8528 C   0  0  0  0  0
   -9.0361   -3.0635  -14.5356 C   0  0  0  0  0
   -8.4234   -4.4160  -14.6870 C   0  0  0  0  0
  -10.3470   -2.8082  -16.6823 C   0  0  0  0  0
  -11.1687   -4.2798  -18.5268 C   0  0  0  0  0
  -11.1200   -5.7015  -18.9780 C   0  0  0  0  0
   -8.6540   -5.7346  -19.7454 C   0  0  0  0  0
   -8.5560   -4.2796  -20.1973 C   0  0  0  0  0
   -8.8471   -4.1541  -21.6531 C   0  0  0  0  0
   -8.0104   -5.9938  -18.4162 C   0  0  0  0  0
   -7.7822   -7.5673  -16.4322 C   0  0  0  0  0
   -8.6137   -8.7206  -15.8943 C   0  0  0  0  0
   -6.3085   -7.8466  -16.3482 C   0  0  0  0  0
   -3.9592   -6.8727  -16.3218 C   0  0  0  0  0
   -3.3100   -7.8249  -17.3485 C   0  0  0  0  0
   -3.7587   -7.6273  -18.7645 C   0  0  0  0  0
   -3.3570   -5.4999  -16.2166 C   0  0  0  0  0
   -0.0127   -7.5558  -14.4790 O   0  0  0  0  0
   -0.2252   -4.8370  -13.5408 O   0  0  0  0  0
    0.9680   -5.0901  -16.9395 O   0  0  0  0  0
   -1.8517   -1.6720  -19.9683 O   0  0  0  0  0
   -4.6511   -4.9446  -21.9505 O   0  0  0  0  0
   -5.0527   -0.6993  -20.6204 O   0  0  0  0  0
   -6.3208    0.5915  -16.2585 O   0  0  0  0  0
   -0.8118    2.1327  -18.8808 O   0  0  0  0  0
   -8.8107   -0.7924  -18.2612 O   0  0  0  0  0
   -9.1339   -5.4428  -14.5331 O   0  0  0  0  0
  -11.3933   -2.1126  -16.7424 O   0  0  0  0  0
  -12.1089   -6.4397  -18.7341 O   0  0  0  0  0
   -8.1149   -4.7285  -22.4989 O   0  0  0  0  0
   -7.3364   -5.0939  -17.8400 O   0  0  0  0  0
   -9.9270   -8.2971  -15.6920 O   0  0  0  0  0
   -5.8770   -9.0129  -16.1229 O   0  0  0  0  0
   -1.9172   -7.8189  -17.2539 O   0  0  0  0  0
   -4.4957   -8.4899  -19.3076 O   0  0  0  0  0
   -3.5960   -4.8077  -15.1893 O   0  0  0  0  0
   -3.3132   -3.4873  -19.7693 N   0  0  0  0  0
   -5.7609   -2.0023  -18.8196 N   0  0  0  0  0
   -7.9594   -2.2013  -16.6062 N   0  0  0  0  0
   -7.0246   -4.5455  -14.9264 N   0  0  0  0  0
  -10.2561   -4.0322  -17.4208 N   0  0  0  0  0
  -10.0319   -6.2268  -19.7465 N   0  0  0  0  0
   -9.9452   -3.3650  -22.0928 N   0  0  0  0  0
   -8.1708   -7.2801  -17.8088 N   0  0  0  0  0
   -5.3988   -6.7612  -16.5196 N   0  0  0  0  0
   -3.3404   -6.4881  -19.5134 N   0  0  0  0  0
   -2.5199   -4.9772  -17.2509 N   0  0  0  0  0
  1  2  1  0  0  0
  2  3  1  0  0  0
  3  4  1  0  0  0
  4  5  1  0  0  0
  5  6  1  0  0  0
  6  7  1  0  0  0
  7  8  1  0  0  0
  8  9  1  0  0  0
  9 10  1  0  0  0
 10 11  1  0  0  0
 12 11  1  0  0  0
 12 48  1  0  0  0
 12 13  1  0  0  0
 13 49  1  0  0  0
 13 14  1  0  0  0
 14 50  1  0  0  0
 14 15  1  0  0  0
 16 15  1  0  0  0
 16 17  1  0  0  0
 16 77  1  0  0  0
 17 18  1  0  0  0
 18 67  1  0  0  0
 19 67  1  0  0  0
 19 20  1  0  0  0
 19 21  1  0  0  0
 20 52  1  0  0  0
 21 68  1  0  0  0
 22 68  1  0  0  0
 22 23  1  0  0  0
 22 30  1  0  0  0
 23 54  1  0  0  0
 23 24  1  0  0  0
 25 26  1  0  0  0
 27 55  1  0  0  0
 27 28  1  0  0  0
 29 24  1  0  0  0
 30 69  1  0  0  0
 31 69  1  0  0  0
 31 32  1  0  0  0
 31 34  1  0  0  0
 32 33  1  0  0  0
 33 70  1  0  0  0
 34 71  1  0  0  0
 35 71  1  0  0  0
 35 36  1  0  0  0
 36 72  1  0  0  0
 37 72  1  0  0  0
 37 38  1  0  0  0
 37 40  1  0  0  0
 38 39  1  0  0  0
 39 73  1  0  0  0
 40 74  1  0  0  0
 41 74  1  0  0  0
 41 42  1  0  0  0
 41 43  1  0  0  0
 42 62  1  0  0  0
 43 75  1  0  0  0
 44 75  1  0  0  0
 44 45  1  0  0  0
 44 47  1  0  0  0
 45 64  1  0  0  0
 45 46  1  0  0  0
 46 76  1  0  0  0
 47 77  1  0  0  0
 18 51  2  0  0  0
 21 53  2  0  0  0
 24 25  2  0  0  0
 26 27  2  0  0  0
 28 29  2  0  0  0
 30 56  2  0  0  0
 33 57  2  0  0  0
 34 58  2  0  0  0
 36 59  2  0  0  0
 39 60  2  0  0  0
 40 61  2  0  0  0
 43 63  2  0  0  0
 46 65  2  0  0  0
 47 66  2  0  0  0
M  END
> <rmsd>
0.71343565

$$$$
CHEMBL415666


 71 75  0  0  0  0  0  0  0  0999 V2000
   -6.6107   -8.1743  -23.7431 C   0  0  0  0  0
   -6.5398   -8.4932  -22.2944 C   0  0  0  0  0
   -7.1209   -7.7806  -19.8992 C   0  0  0  0  0
   -7.7614   -9.1016  -19.4967 C   0  0  0  0  0
  -11.0097   -7.5411  -20.9032 C   0  0  0  0  0
  -10.0082   -6.6085  -21.5618 C   0  0  0  0  0
  -10.2948   -6.4331  -23.0226 C   0  0  0  0  0
   -8.9863   -4.3534  -21.0278 C   0  0  0  0  0
   -9.1544   -3.0051  -20.4003 C   0  0  0  0  0
  -10.0240   -2.1250  -21.2897 C   0  0  0  0  0
  -11.4659   -2.2998  -20.9510 C   0  0  0  0  0
  -12.3779   -3.1114  -21.6183 C   0  0  0  0  0
  -13.4545   -2.1146  -20.0473 C   0  0  0  0  0
  -14.4495   -1.6576  -19.1861 C   0  0  0  0  0
  -14.0845   -0.7107  -18.2112 C   0  0  0  0  0
  -12.7531   -0.2479  -18.1200 C   0  0  0  0  0
  -11.7700   -0.7268  -19.0027 C   0  0  0  0  0
  -12.1660   -1.6656  -19.9555 C   0  0  0  0  0
   -7.6853   -1.2752  -19.2962 C   0  0  0  0  0
   -6.4253   -0.4661  -19.3678 C   0  0  0  0  0
   -6.6989    1.0129  -19.6124 C   0  0  0  0  0
   -7.2647    1.2318  -21.0036 C   0  0  0  0  0
   -7.5588    2.7027  -21.2153 C   0  0  0  0  0
   -9.1035    4.3383  -20.3264 C   0  0  0  0  0
   -5.8936   -0.2132  -16.8626 C   0  0  0  0  0
   -4.8604   -0.2833  -15.7800 C   0  0  0  0  0
   -4.1515    1.0586  -15.5770 C   0  0  0  0  0
   -3.3122    1.4574  -16.7508 C   0  0  0  0  0
   -1.9665    1.0727  -16.8150 C   0  0  0  0  0
   -1.1805    1.4540  -17.9071 C   0  0  0  0  0
   -1.7356    2.2261  -18.9326 C   0  0  0  0  0
   -3.0758    2.6218  -18.8632 C   0  0  0  0  0
   -3.8614    2.2418  -17.7712 C   0  0  0  0  0
   -3.9826   -2.6269  -15.4127 C   0  0  0  0  0
   -2.8959   -3.6220  -15.6552 C   0  0  0  0  0
   -2.2090   -3.9819  -14.3420 C   0  0  0  0  0
   -1.0137   -4.8501  -14.5692 C   0  0  0  0  0
   -1.0426   -6.1825  -14.9052 C   0  0  0  0  0
    0.9885   -5.5217  -14.7220 C   0  0  0  0  0
   -3.8527   -4.8402  -17.6652 C   0  0  0  0  0
   -3.9475   -6.1552  -18.3682 C   0  0  0  0  0
   -2.9448   -6.2238  -19.5189 C   0  0  0  0  0
   -1.5125   -6.3228  -19.0073 C   0  0  0  0  0
   -1.1846   -7.7118  -18.5742 C   0  0  0  0  0
   -5.7332   -7.6412  -19.3556 C   0  0  0  0  0
   -5.9650   -9.5476  -21.9177 O   0  0  0  0  0
   -9.3424   -6.2142  -23.8173 O   0  0  0  0  0
   -7.9601   -4.6167  -21.7119 O   0  0  0  0  0
   -8.5945   -0.9775  -18.4738 O   0  0  0  0  0
   -7.0159    0.2978  -16.6059 O   0  0  0  0  0
   -4.9701   -2.9212  -14.6834 O   0  0  0  0  0
   -4.0894   -3.7656  -18.2831 O   0  0  0  0  0
   -1.7710   -8.2282  -17.5868 O   0  0  0  0  0
   -0.2097   -8.4305  -19.2519 O   0  0  0  0  0
   -4.9546   -8.6317  -19.3299 O   0  0  0  0  0
   -7.1350   -7.6018  -21.3479 N   0  0  0  0  0
  -11.6350   -6.4118  -23.5082 N   0  0  0  0  0
  -10.0278   -5.3230  -20.8829 N   0  0  0  0  0
  -13.6056   -2.9974  -21.0530 N   0  0  0  0  0
   -7.8609   -2.3659  -20.2011 N   0  0  0  0  0
   -8.7064    3.1052  -20.4109 N   0  0  0  0  0
   -8.4144    5.3828  -21.0153 N   0  0  0  0  0
  -10.2337    4.6569  -19.5235 N   0  0  0  0  0
   -5.5810   -0.6579  -18.1904 N   0  0  0  0  0
   -3.8932   -1.3435  -16.0319 N   0  0  0  0  0
    0.2305   -6.6007  -15.0044 N   0  0  0  0  0
    0.2525   -4.4269  -14.4452 N   0  0  0  0  0
   -3.4185   -4.8177  -16.3063 N   0  0  0  0  0
   -5.3002   -6.3722  -18.8624 N   0  0  0  0  0
   -9.4531   -8.8421  -18.8915 S   0  0  0  0  0
  -10.3324   -9.2243  -20.7970 S   0  0  0  0  0
  1  2  1  0  0  0
  2 56  1  0  0  0
  3 56  1  0  0  0
  3  4  1  0  0  0
  3 45  1  0  0  0
  4 70  1  0  0  0
  5 71  1  0  0  0
  5  6  1  0  0  0
  6  7  1  0  0  0
  6 58  1  0  0  0
  7 57  1  0  0  0
  9  8  1  0  0  0
  9 10  1  0  0  0
  9 60  1  0  0  0
 10 11  1  0  0  0
 12 59  1  0  0  0
 14 15  1  0  0  0
 16 17  1  0  0  0
 18 11  1  0  0  0
 18 13  1  0  0  0
 20 19  1  0  0  0
 20 21  1  0  0  0
 20 64  1  0  0  0
 21 22  1  0  0  0
 22 23  1  0  0  0
 23 61  1  0  0  0
 24 62  1  0  0  0
 24 63  1  0  0  0
 26 25  1  0  0  0
 26 27  1  0  0  0
 26 65  1  0  0  0
 27 28  1  0  0  0
 29 30  1  0  0  0
 31 32  1  0  0  0
 33 28  1  0  0  0
 35 34  1  0  0  0
 35 36  1  0  0  0
 35 68  1  0  0  0
 36 37  1  0  0  0
 37 67  1  0  0  0
 38 66  1  0  0  0
 41 40  1  0  0  0
 41 42  1  0  0  0
 41 69  1  0  0  0
 42 43  1  0  0  0
 43 44  1  0  0  0
 44 54  1  0  0  0
 58  8  1  0  0  0
 59 13  1  0  0  0
 60 19  1  0  0  0
 64 25  1  0  0  0
 65 34  1  0  0  0
 66 39  1  0  0  0
 68 40  1  0  0  0
 69 45  1  0  0  0
 70 71  1  0  0  0
  2 46  2  0  0  0
  7 47  2  0  0  0
  8 48  2  0  0  0
 11 12  2  0  0  0
 13 14  2  0  0  0
 15 16  2  0  0  0
 17 18  2  0  0  0
 19 49  2  0  0  0
 24 61  2  0  0  0
 25 50  2  0  0  0
 28 29  2  0  0  0
 30 31  2  0  0  0
 32 33  2  0  0  0
 34 51  2  0  0  0
 37 38  2  0  0  0
 39 67  2  0  0  0
 40 52  2  0  0  0
 44 53  2  0  0  0
 45 55  2  0  0  0
M  END
> <rmsd>
0.619688809

$$$$
CHEMBL4246576


 69 70  0  0  0  0  0  0  0  0999 V2000
  -11.7933    8.3664  -17.7503 O   0  0  0  0  0
  -13.3119    4.6008  -16.2985 O   0  0  0  0  0
  -10.2020    5.2512  -17.8715 O   0  0  0  0  0
   -9.2190    0.3852  -18.7200 O   0  0  0  0  0
   -6.6070   -0.8410  -18.0761 O   0  0  0  0  0
   -6.3085   -3.6597  -17.9161 O   0  0  0  0  0
   -3.8616   -7.7027  -19.7180 O   0  0  0  0  0
   -1.8266   -8.0028  -17.4263 O   0  0  0  0  0
   -1.3171  -10.1967  -17.0265 O   0  0  0  0  0
   -8.3547   -5.7583  -21.9954 O   0  0  0  0  0
   -0.3721    2.4302  -18.6469 O   0  0  0  0  0
   -7.4803    0.4785  -15.5737 O   0  0  0  0  0
  -15.9516    7.0129  -17.4085 O   0  0  0  0  0
  -11.7740    8.4114  -16.4897 C   0  0  0  0  0
  -13.8574    6.9203  -16.2531 C   0  0  0  0  0
  -13.3368    5.6904  -16.9321 C   0  0  0  0  0
  -12.2483    4.6173  -18.9572 C   0  0  0  0  0
  -10.8676    4.3414  -18.4404 C   0  0  0  0  0
   -8.9729    2.6933  -18.1452 C   0  0  0  0  0
   -8.5165    1.4299  -18.7965 C   0  0  0  0  0
   -6.7631    0.2489  -20.2080 C   0  0  0  0  0
   -6.1632   -0.7510  -19.2520 C   0  0  0  0  0
   -4.3860   -2.5666  -18.8395 C   0  0  0  0  0
   -5.2144   -3.7722  -18.5326 C   0  0  0  0  0
   -5.4819   -6.2854  -18.6710 C   0  0  0  0  0
   -4.5750   -7.4727  -18.7033 C   0  0  0  0  0
   -3.6849   -9.5336  -17.4534 C   0  0  0  0  0
   -2.2305   -9.1905  -17.3103 C   0  0  0  0  0
   -3.9063  -10.4896  -18.6190 C   0  0  0  0  0
   -5.3255  -11.0314  -18.6033 C   0  0  0  0  0
   -5.5763  -11.8806  -19.8360 C   0  0  0  0  0
   -5.8428  -11.5645  -22.3308 C   0  0  0  0  0
   -6.6546   -6.4294  -19.6439 C   0  0  0  0  0
   -6.2195   -6.3430  -21.1020 C   0  0  0  0  0
   -7.3848   -6.5620  -22.0017 C   0  0  0  0  0
   -3.8664   -1.9125  -17.5585 C   0  0  0  0  0
   -2.9410   -0.7779  -17.8519 C   0  0  0  0  0
   -1.7196   -1.0010  -18.5010 C   0  0  0  0  0
   -0.8625    0.0711  -18.7682 C   0  0  0  0  0
   -1.2223    1.3657  -18.3819 C   0  0  0  0  0
   -2.4371    1.5887  -17.7266 C   0  0  0  0  0
   -3.2951    0.5178  -17.4611 C   0  0  0  0  0
   -5.7802    0.6760  -21.3057 C   0  0  0  0  0
   -4.5239    1.3453  -20.7552 C   0  0  0  0  0
   -3.3875    1.1674  -21.7395 C   0  0  0  0  0
   -4.7637    2.8265  -20.5367 C   0  0  0  0  0
   -8.9824    2.5526  -16.6294 C   0  0  0  0  0
   -7.5946    2.8334  -16.0691 C   0  0  0  0  0
   -6.9029    1.5997  -15.5751 C   0  0  0  0  0
  -12.2467    4.8228  -20.4705 C   0  0  0  0  0
  -14.7920    7.7384  -17.1358 C   0  0  0  0  0
  -10.6871    9.1517  -15.7844 C   0  0  0  0  0
  -10.6173   10.5907  -16.2429 C   0  0  0  0  0
   -9.1543   10.9160  -16.1796 C   0  0  0  0  0
   -8.4702    9.5892  -16.4132 C   0  0  0  0  0
  -12.7718    7.7371  -15.7143 N   0  0  0  0  0
  -12.8647    5.7533  -18.2819 N   0  0  0  0  0
  -10.3030    3.0422  -18.6224 N   0  0  0  0  0
   -7.2791    1.4229  -19.5103 N   0  0  0  0  0
   -5.1087   -1.6198  -19.6904 N   0  0  0  0  0
   -4.7302   -5.0606  -18.9160 N   0  0  0  0  0
   -4.5283   -8.3413  -17.5660 N   0  0  0  0  0
   -5.6284  -11.0355  -21.0211 N   0  0  0  0  0
   -6.0138  -12.8337  -22.5110 N   0  0  0  0  0
   -5.8664  -10.6850  -23.4484 N   0  0  0  0  0
   -7.3957   -7.6796  -22.8821 N   0  0  0  0  0
   -5.5720    1.7038  -15.0822 N   0  0  0  0  0
   -9.3956    8.5234  -16.0398 N   0  0  0  0  0
  -11.3535    6.3363  -20.9579 S   0  0  0  0  0
 14 56  1  0  0  0
 15 56  1  0  0  0
 15 16  1  0  0  0
 15 51  1  0  0  0
 16 57  1  0  0  0
 17 57  1  0  0  0
 17 18  1  0  0  0
 17 50  1  0  0  0
 18 58  1  0  0  0
 19 58  1  0  0  0
 19 20  1  0  0  0
 19 47  1  0  0  0
 20 59  1  0  0  0
 21 59  1  0  0  0
 21 22  1  0  0  0
 21 43  1  0  0  0
 22 60  1  0  0  0
 23 60  1  0  0  0
 23 24  1  0  0  0
 23 36  1  0  0  0
 24 61  1  0  0  0
 25 61  1  0  0  0
 25 26  1  0  0  0
 25 33  1  0  0  0
 26 62  1  0  0  0
 27 62  1  0  0  0
 27 28  1  0  0  0
 27 29  1  0  0  0
 28  9  1  0  0  0
 29 30  1  0  0  0
 30 31  1  0  0  0
 31 63  1  0  0  0
 32 65  1  0  0  0
 33 34  1  0  0  0
 34 35  1  0  0  0
 35 66  1  0  0  0
 36 37  1  0  0  0
 38 39  1  0  0  0
 40 41  1  0  0  0
 40 11  1  0  0  0
 42 37  1  0  0  0
 43 44  1  0  0  0
 44 45  1  0  0  0
 44 46  1  0  0  0
 47 48  1  0  0  0
 48 49  1  0  0  0
 49 67  1  0  0  0
 50 69  1  0  0  0
 51 13  1  0  0  0
 52 14  1  0  0  0
 52 53  1  0  0  0
 52 68  1  0  0  0
 53 54  1  0  0  0
 54 55  1  0  0  0
 55 68  1  0  0  0
 63 32  1  0  0  0
 14  1  2  0  0  0
 16  2  2  0  0  0
 18  3  2  0  0  0
 20  4  2  0  0  0
 22  5  2  0  0  0
 24  6  2  0  0  0
 26  7  2  0  0  0
 28  8  2  0  0  0
 32 64  2  0  0  0
 35 10  2  0  0  0
 37 38  2  0  0  0
 39 40  2  0  0  0
 41 42  2  0  0  0
 49 12  2  0  0  0
M  END
> <rmsd>
0.792188585

$$$$
CHEMBL4074277


 70 72  0  0  0  0  0  0  0  0999 V2000
   -5.2601    2.3796  -22.2418 C   0  0  0  0  0
   -4.6458    0.9916  -22.1364 C   0  0  0  0  0
   -3.1449    1.1816  -22.2124 C   0  0  0  0  0
   -4.9432    0.3087  -20.7787 C   0  0  0  0  0
   -4.4732   -1.9418  -19.6548 C   0  0  0  0  0
   -4.7620   -1.3994  -18.2892 C   0  0  0  0  0
   -6.8031   -1.6688  -16.8285 C   0  0  0  0  0
   -7.9568   -2.5225  -16.3927 C   0  0  0  0  0
   -9.4165   -2.1562  -18.4365 C   0  0  0  0  0
  -10.0802   -2.7053  -19.6543 C   0  0  0  0  0
   -8.5891   -3.4542  -21.5639 C   0  0  0  0  0
   -8.6196   -2.0969  -22.2032 C   0  0  0  0  0
   -9.7041   -2.6503  -24.4704 C   0  0  0  0  0
  -10.8228   -2.4061  -25.4435 C   0  0  0  0  0
  -12.2878   -4.4039  -24.7869 C   0  0  0  0  0
  -13.0734   -5.5917  -25.2585 C   0  0  0  0  0
  -14.5452   -6.0608  -23.2039 C   0  0  0  0  0
  -14.9338   -7.0186  -22.1350 C   0  0  0  0  0
  -14.2210   -5.1624  -26.1604 C   0  0  0  0  0
  -14.6998   -6.3349  -26.9972 C   0  0  0  0  0
  -15.7326   -5.8679  -28.0051 C   0  0  0  0  0
  -15.8123   -4.4865  -30.1222 C   0  0  0  0  0
  -11.7768   -1.3095  -24.9944 C   0  0  0  0  0
   -7.2627   -1.7140  -22.7881 C   0  0  0  0  0
  -11.4085   -3.3365  -19.2866 C   0  0  0  0  0
  -12.2595   -3.5144  -20.5293 C   0  0  0  0  0
  -13.5612   -4.2107  -20.1868 C   0  0  0  0  0
  -14.8248   -3.6282  -18.0753 C   0  0  0  0  0
   -7.5284   -3.6747  -15.4750 C   0  0  0  0  0
   -6.5764   -4.6425  -16.1147 C   0  0  0  0  0
   -6.9861   -5.4659  -17.1708 C   0  0  0  0  0
   -6.0763   -6.3411  -17.7709 C   0  0  0  0  0
   -4.7497   -6.4066  -17.3184 C   0  0  0  0  0
   -4.3508   -5.5942  -16.2483 C   0  0  0  0  0
   -5.2596   -4.7183  -15.6479 C   0  0  0  0  0
   -3.5000   -1.3451  -17.4391 C   0  0  0  0  0
   -2.6278   -0.2130  -17.8707 C   0  0  0  0  0
   -1.3700   -0.4796  -18.4230 C   0  0  0  0  0
   -0.5516    0.5743  -18.8425 C   0  0  0  0  0
   -0.9902    1.8962  -18.7103 C   0  0  0  0  0
   -2.2460    2.1645  -18.1557 C   0  0  0  0  0
   -3.0639    1.1125  -17.7337 C   0  0  0  0  0
   -6.3050    0.5759  -20.1832 C   0  0  0  0  0
   -4.6204   -1.1191  -20.8162 N   0  0  0  0  0
   -5.7715   -2.2217  -17.6476 N   0  0  0  0  0
   -8.7020   -3.0181  -17.5442 N   0  0  0  0  0
   -9.2262   -3.6883  -20.3067 N   0  0  0  0  0
   -9.6922   -1.9958  -23.1918 N   0  0  0  0  0
  -11.5492   -3.6372  -25.7444 N   0  0  0  0  0
  -13.5424   -6.4343  -24.1556 N   0  0  0  0  0
  -15.0863   -5.0797  -29.0452 N   0  0  0  0  0
  -17.0934   -4.6326  -30.2158 N   0  0  0  0  0
  -15.1168   -3.7273  -31.1028 N   0  0  0  0  0
  -14.4158   -3.3227  -19.4127 N   0  0  0  0  0
  -14.4423   -4.7206  -17.4987 N   0  0  0  0  0
  -15.6378   -2.7045  -17.3612 N   0  0  0  0  0
   -3.8098   -7.2963  -17.9370 N   0  0  0  0  0
   -4.1221   -3.1433  -19.7912 O   0  0  0  0  0
   -6.7828   -0.4495  -16.5143 O   0  0  0  0  0
   -9.5300   -0.9274  -18.1803 O   0  0  0  0  0
   -8.0438   -4.4223  -22.1610 O   0  0  0  0  0
   -8.7613   -3.4202  -24.8018 O   0  0  0  0  0
  -12.2733   -4.0822  -23.5679 O   0  0  0  0  0
  -15.1063   -4.9337  -23.2635 O   0  0  0  0  0
   -4.1446   -7.9904  -18.9200 O   0  0  0  0  0
   -2.5143   -7.3636  -17.4797 O   0  0  0  0  0
   -7.1649   -0.3391  -20.0981 O   0  0  0  0  0
   -6.5998    1.8353  -19.6753 O   0  0  0  0  0
   -7.2444    0.0269  -23.3133 S   0  0  0  0  0
   -5.1271   -0.0159  -23.5996 S   0  0  0  0  0
  1  2  1  0  0  0
  2  3  1  0  0  0
  2  4  1  0  0  0
  2 70  1  0  0  0
  4 44  1  0  0  0
  4 43  1  0  0  0
  6  5  1  0  0  0
  6 45  1  0  0  0
  6 36  1  0  0  0
  8  7  1  0  0  0
  8 46  1  0  0  0
  8 29  1  0  0  0
 10  9  1  0  0  0
 10 47  1  0  0  0
 10 25  1  0  0  0
 12 11  1  0  0  0
 12 48  1  0  0  0
 12 24  1  0  0  0
 14 13  1  0  0  0
 14 49  1  0  0  0
 14 23  1  0  0  0
 16 15  1  0  0  0
 16 50  1  0  0  0
 16 19  1  0  0  0
 18 17  1  0  0  0
 19 20  1  0  0  0
 20 21  1  0  0  0
 21 51  1  0  0  0
 22 53  1  0  0  0
 24 69  1  0  0  0
 25 26  1  0  0  0
 26 27  1  0  0  0
 27 54  1  0  0  0
 28 56  1  0  0  0
 29 30  1  0  0  0
 31 32  1  0  0  0
 33 34  1  0  0  0
 33 57  1  0  0  0
 35 30  1  0  0  0
 36 37  1  0  0  0
 38 39  1  0  0  0
 40 41  1  0  0  0
 42 37  1  0  0  0
 43 68  1  0  0  0
 44  5  1  0  0  0
 45  7  1  0  0  0
 46  9  1  0  0  0
 47 11  1  0  0  0
 48 13  1  0  0  0
 49 15  1  0  0  0
 50 17  1  0  0  0
 51 22  1  0  0  0
 54 28  1  0  0  0
 57 66  1  0  0  0
 69 70  1  0  0  0
  5 58  2  0  0  0
  7 59  2  0  0  0
  9 60  2  0  0  0
 11 61  2  0  0  0
 13 62  2  0  0  0
 15 63  2  0  0  0
 17 64  2  0  0  0
 22 52  2  0  0  0
 28 55  2  0  0  0
 30 31  2  0  0  0
 32 33  2  0  0  0
 34 35  2  0  0  0
 37 38  2  0  0  0
 39 40  2  0  0  0
 41 42  2  0  0  0
 43 67  2  0  0  0
 57 65  2  0  0  0
M  CHG  2  57   1  66  -1
M  END
> <rmsd>
0.808361769

$$$$
CHEMBL254869 PubChem-123756


 41 44  0  0  0  0  0  0  0  0999 V2000
   -4.3161    2.5165  -15.9745 C   0  0  0  0  0
   -3.2619    0.8954  -17.6238 C   0  0  0  0  0
   -2.0256    1.5543  -17.5244 C   0  0  0  0  0
   -0.9223    1.1172  -18.2573 C   0  0  0  0  0
   -1.0410    0.0143  -19.1009 C   0  0  0  0  0
   -2.2627   -0.6508  -19.2101 C   0  0  0  0  0
   -3.3853   -0.2274  -18.4801 C   0  0  0  0  0
   -4.6532   -0.9792  -18.6422 C   0  0  0  0  0
   -7.0376   -1.3010  -18.0553 C   0  0  0  0  0
   -7.9831   -0.9550  -16.9365 C   0  0  0  0  0
   -8.9009    0.0669  -17.5587 C   0  0  0  0  0
   -7.7493   -0.7850  -19.2959 C   0  0  0  0  0
   -7.9921   -1.9131  -20.2907 C   0  0  0  0  0
  -10.8760    0.9733  -16.2946 C   0  0  0  0  0
  -12.2201   -0.6714  -16.3230 C   0  0  0  0  0
  -11.0959   -1.0335  -16.9759 C   0  0  0  0  0
  -11.9600   -3.1548  -17.4137 C   0  0  0  0  0
  -13.2685   -1.5718  -16.1989 C   0  0  0  0  0
   -4.3809    1.3670  -16.8636 N   0  0  0  0  0
  -10.2318   -0.0116  -16.9694 N   0  0  0  0  0
  -12.1178    0.5945  -15.8764 N   0  0  0  0  0
  -10.9325   -2.2595  -17.5301 N   0  0  0  0  0
  -13.1136   -2.8103  -16.7543 N   0  0  0  0  0
  -14.4694   -1.2254  -15.5180 N   0  0  0  0  0
   -4.7027   -1.9515  -19.4462 O   0  0  0  0  0
   -5.7904   -0.6272  -17.9094 O   0  0  0  0  0
   -7.3219   -0.4081  -15.8338 O   0  0  0  0  0
   -8.9683   -0.1754  -18.9402 O   0  0  0  0  0
   -8.9170   -2.8311  -19.7818 O   0  0  0  0  0
   -7.9432   -4.7020  -21.3329 O   0  0  0  0  0
   -9.1873   -5.4911  -19.1700 O   0  0  0  0  0
   -6.6739   -4.2793  -19.0484 O   0  0  0  0  0
   -5.8227   -6.3277  -20.4775 O   0  0  0  0  0
   -6.9866   -6.9037  -18.1946 O   0  0  0  0  0
   -4.4605   -5.7262  -18.3151 O   0  0  0  0  0
   -2.4483   -7.2369  -17.6131 O   0  0  0  0  0
   -4.7927   -8.0489  -16.8204 O   0  0  0  0  0
   -3.9894   -8.2381  -19.4595 O   0  0  0  0  0
   -8.1615   -4.3467  -19.8779 P   0  0  0  0  0
   -5.9897   -5.8382  -19.0550 P   0  0  0  0  0
   -3.8938   -7.3088  -18.0480 P   0  0  0  0  0
  1 19  1  0  0  0
  3  4  1  0  0  0
  5  6  1  0  0  0
  7  8  1  0  0  0
  7  2  1  0  0  0
  8 26  1  0  0  0
  9 26  1  0  0  0
  9 10  1  0  0  0
 10 27  1  0  0  0
 10 11  1  0  0  0
 11 28  1  0  0  0
 11 20  1  0  0  0
 12 28  1  0  0  0
 12 13  1  0  0  0
 12  9  1  0  0  0
 13 29  1  0  0  0
 15 21  1  0  0  0
 16 22  1  0  0  0
 16 20  1  0  0  0
 17 23  1  0  0  0
 18 24  1  0  0  0
 18 15  1  0  0  0
 19  2  1  0  0  0
 20 14  1  0  0  0
 39 29  1  0  0  0
 39 31  1  0  0  0
 39 32  1  0  0  0
 40 32  1  0  0  0
 40 34  1  0  0  0
 40 35  1  0  0  0
 41 35  1  0  0  0
 41 37  1  0  0  0
 41 38  1  0  0  0
  2  3  2  0  0  0
  4  5  2  0  0  0
  6  7  2  0  0  0
  8 25  2  0  0  0
 14 21  2  0  0  0
 15 16  2  0  0  0
 17 22  2  0  0  0
 18 23  2  0  0  0
 39 30  2  0  0  0
 40 33  2  0  0  0
 41 36  2  0  0  0
M  END
> <rmsd>
0.76006794

$$$$
CHEMBL4301229 PubChem-145947055


 84 90  0  0  0  0  0  0  0  0999 V2000
  -19.1395  -15.1912  -25.7081 O   0  0  0  0  0
  -19.2297  -16.9709  -27.3921 O   0  0  0  0  0
  -17.0733  -16.8049  -25.9208 O   0  0  0  0  0
  -12.1184  -14.8880  -22.3324 O   0  0  0  0  0
   -9.9407  -11.1780  -20.1638 O   0  0  0  0  0
   -7.8327   -4.9434  -21.0369 O   0  0  0  0  0
   -4.0022   -7.6355  -19.8097 O   0  0  0  0  0
   -1.4416   -7.0472  -19.5997 O   0  0  0  0  0
   -2.6555   -7.6449  -17.5463 O   0  0  0  0  0
   -2.1039   -9.5400  -19.2372 O   0  0  0  0  0
   -7.6185   -2.4053  -20.5095 O   0  0  0  0  0
   -3.9709   -2.9314  -18.9330 O   0  0  0  0  0
   -1.2354    2.5338  -16.9665 O   0  0  0  0  0
   -0.8290    2.0805  -14.4264 O   0  0  0  0  0
    0.6996    3.6302  -15.5726 O   0  0  0  0  0
    0.9485    1.0700  -16.0538 O   0  0  0  0  0
   -3.1010    3.0446  -18.9539 O   0  0  0  0  0
   -3.7252    4.8133  -20.7814 O   0  0  0  0  0
   -4.3040    2.4702  -21.2777 O   0  0  0  0  0
   -1.7796    3.1824  -21.3815 O   0  0  0  0  0
   -6.3348   -0.2198  -19.5173 O   0  0  0  0  0
   -8.6890   -0.6582  -18.4016 O   0  0  0  0  0
   -7.9080    1.6571  -18.5873 O   0  0  0  0  0
   -6.8004    0.1288  -16.8094 O   0  0  0  0  0
  -12.1498  -10.9788  -21.4859 O   0  0  0  0  0
  -14.1966  -11.9639  -22.9645 O   0  0  0  0  0
  -15.1251  -10.8743  -20.7591 O   0  0  0  0  0
  -16.2175  -12.9143  -21.5905 O   0  0  0  0  0
  -16.6348  -10.6837  -22.8542 O   0  0  0  0  0
   -8.0854  -15.6441  -19.9313 O   0  0  0  0  0
  -10.2327  -18.5865  -20.3385 O   0  0  0  0  0
  -11.1512  -15.7468  -17.7949 O   0  0  0  0  0
   -8.0566  -17.8958  -19.0059 O   0  0  0  0  0
  -15.3046  -18.2751  -24.2504 O   0  0  0  0  0
  -16.2282  -19.2620  -26.5400 O   0  0  0  0  0
  -14.9057  -20.7289  -25.0965 O   0  0  0  0  0
  -13.6485  -18.8836  -26.4077 O   0  0  0  0  0
  -17.7150  -14.9448  -27.8786 O   0  0  0  0  0
  -18.3390  -15.9741  -26.7149 S   0  0  0  0  0
   -2.5173   -7.9269  -19.0164 S   0  0  0  0  0
   -0.0963    2.3481  -15.7079 S   0  0  0  0  0
   -3.2798    3.3860  -20.6256 S   0  0  0  0  0
   -7.4843    0.2397  -18.3391 S   0  0  0  0  0
  -15.5498  -11.6253  -21.9862 S   0  0  0  0  0
   -4.9103  -13.9928  -17.7736 S   0  0  0  0  0
  -15.0605  -19.3188  -25.5905 S   0  0  0  0  0
  -16.0755  -16.1527  -25.1903 C   0  0  0  0  0
  -15.2195  -16.8867  -24.3504 C   0  0  0  0  0
  -14.2690  -16.2133  -23.5733 C   0  0  0  0  0
  -14.1458  -14.8197  -23.6258 C   0  0  0  0  0
  -13.1134  -14.1464  -22.8051 C   0  0  0  0  0
  -11.1300  -14.4015  -21.5938 C   0  0  0  0  0
  -10.1256  -15.2618  -21.1523 C   0  0  0  0  0
   -9.0738  -14.7776  -20.3756 C   0  0  0  0  0
   -9.0089  -13.4229  -20.0533 C   0  0  0  0  0
  -10.0078  -12.5374  -20.4878 C   0  0  0  0  0
   -8.8787  -10.6048  -19.4090 C   0  0  0  0  0
   -9.0994   -9.1381  -19.3126 C   0  0  0  0  0
   -9.7372   -8.5859  -18.1951 C   0  0  0  0  0
   -9.9906   -7.2113  -18.1401 C   0  0  0  0  0
   -9.6106   -6.3919  -19.2104 C   0  0  0  0  0
   -8.9833   -6.9451  -20.3307 C   0  0  0  0  0
   -8.7411   -8.3196  -20.3853 C   0  0  0  0  0
   -8.5806   -6.0776  -21.4798 C   0  0  0  0  0
   -6.5435   -5.0251  -20.4782 C   0  0  0  0  0
   -5.8780   -6.2609  -20.4091 C   0  0  0  0  0
   -4.6064   -6.3767  -19.8550 C   0  0  0  0  0
   -3.9772   -5.2391  -19.3461 C   0  0  0  0  0
   -4.6058   -3.9945  -19.4083 C   0  0  0  0  0
   -5.8976   -3.8714  -19.9743 C   0  0  0  0  0
   -6.4788   -2.5897  -20.0055 C   0  0  0  0  0
   -5.7700   -1.4967  -19.4934 C   0  0  0  0  0
   -4.4818   -1.7048  -18.9616 C   0  0  0  0  0
   -3.6627   -0.5939  -18.4334 C   0  0  0  0  0
   -3.7707    0.7029  -18.9529 C   0  0  0  0  0
   -2.9689    1.7452  -18.4622 C   0  0  0  0  0
   -2.0412    1.4884  -17.4386 C   0  0  0  0  0
   -1.9161    0.1842  -16.9371 C   0  0  0  0  0
   -2.7171   -0.8474  -17.4321 C   0  0  0  0  0
  -11.0867  -13.0307  -21.2605 C   0  0  0  0  0
  -12.1285  -12.2130  -21.7370 C   0  0  0  0  0
  -13.1551  -12.7704  -22.5057 C   0  0  0  0  0
  -14.9760  -14.1058  -24.4970 C   0  0  0  0  0
  -15.9309  -14.7636  -25.2678 C   0  0  0  0  0
 39  3  1  0  0  0
 39 38  1  0  0  0
 40  7  1  0  0  0
 40 10  1  0  0  0
 41 13  1  0  0  0
 41 16  1  0  0  0
 42 17  1  0  0  0
 42 20  1  0  0  0
 43 21  1  0  0  0
 43 24  1  0  0  0
 44 26  1  0  0  0
 44 29  1  0  0  0
 45 30  1  0  0  0
 45 31  1  0  0  0
 45 32  1  0  0  0
 45 33  1  0  0  0
 46 34  1  0  0  0
 46 37  1  0  0  0
 47  3  1  0  0  0
 48 49  1  0  0  0
 48 34  1  0  0  0
 50 51  1  0  0  0
 50 83  1  0  0  0
 51  4  1  0  0  0
 52  4  1  0  0  0
 53 54  1  0  0  0
 54 30  1  0  0  0
 55 56  1  0  0  0
 56  5  1  0  0  0
 57  5  1  0  0  0
 57 58  1  0  0  0
 59 60  1  0  0  0
 61 62  1  0  0  0
 63 58  1  0  0  0
 64 62  1  0  0  0
 64  6  1  0  0  0
 65  6  1  0  0  0
 66 67  1  0  0  0
 67  7  1  0  0  0
 68 69  1  0  0  0
 69 12  1  0  0  0
 70 71  1  0  0  0
 70 65  1  0  0  0
 71 72  1  0  0  0
 72 21  1  0  0  0
 73 12  1  0  0  0
 73 74  1  0  0  0
 75 76  1  0  0  0
 76 17  1  0  0  0
 77 78  1  0  0  0
 77 13  1  0  0  0
 79 74  1  0  0  0
 80 81  1  0  0  0
 80 52  1  0  0  0
 81 82  1  0  0  0
 82 26  1  0  0  0
 84 47  1  0  0  0
 39  1  2  0  0  0
 39  2  2  0  0  0
 40  8  2  0  0  0
 40  9  2  0  0  0
 41 14  2  0  0  0
 41 15  2  0  0  0
 42 18  2  0  0  0
 42 19  2  0  0  0
 43 22  2  0  0  0
 43 23  2  0  0  0
 44 27  2  0  0  0
 44 28  2  0  0  0
 46 35  2  0  0  0
 46 36  2  0  0  0
 47 48  2  0  0  0
 49 50  2  0  0  0
 52 53  2  0  0  0
 54 55  2  0  0  0
 56 80  2  0  0  0
 58 59  2  0  0  0
 60 61  2  0  0  0
 62 63  2  0  0  0
 65 66  2  0  0  0
 67 68  2  0  0  0
 69 70  2  0  0  0
 71 11  2  0  0  0
 72 73  2  0  0  0
 74 75  2  0  0  0
 76 77  2  0  0  0
 78 79  2  0  0  0
 81 25  2  0  0  0
 82 51  2  0  0  0
 83 84  2  0  0  0
M  END
> <rmsd>
0.768435597

$$$$
CHEMBL508200 PubChem-10077800


 45 48  0  0  0  0  0  0  0  0999 V2000
   -2.2692   -7.1087  -17.2617 O   0  0  0  0  0
   -0.0189  -15.5018  -15.9570 O   0  0  0  0  0
   -4.2181   -8.1207  -16.5411 O   0  0  0  0  0
   -6.7860   -6.0624  -18.0533 O   0  0  0  0  0
   -7.7977   -5.6591  -21.5251 O   0  0  0  0  0
   -7.2090   -4.1040  -19.2592 O   0  0  0  0  0
   -8.0900   -3.4404  -17.2147 O   0  0  0  0  0
   -6.5958   -0.2654  -16.3944 O   0  0  0  0  0
   -8.8037   -0.1769  -18.4588 O   0  0  0  0  0
  -10.9821   -2.7369  -17.4082 O   0  0  0  0  0
   -9.0541   -2.6813  -20.4260 O   0  0  0  0  0
   -4.6521   -4.3690  -19.5053 O   0  0  0  0  0
   -3.9801   -3.8744  -21.6578 O   0  0  0  0  0
   -1.6787    3.1678  -16.9269 O   0  0  0  0  0
   -4.7533   -7.8024  -20.0567 O   0  0  0  0  0
   -2.8608   -8.1525  -16.8752 C   0  0  0  0  0
   -2.1083   -9.4039  -16.7769 C   0  0  0  0  0
   -2.6992  -10.5374  -16.4058 C   0  0  0  0  0
   -1.9799  -11.8143  -16.3002 C   0  0  0  0  0
   -0.6092  -11.9163  -16.5872 C   0  0  0  0  0
    0.0438  -13.1470  -16.4736 C   0  0  0  0  0
   -0.6683  -14.2812  -16.0745 C   0  0  0  0  0
   -2.0345  -14.1859  -15.7931 C   0  0  0  0  0
   -2.6883  -12.9553  -15.9064 C   0  0  0  0  0
   -5.0182   -6.9575  -16.7128 C   0  0  0  0  0
   -5.7422   -7.0079  -18.0495 C   0  0  0  0  0
   -6.8036   -5.4612  -19.3328 C   0  0  0  0  0
   -7.7433   -6.2477  -20.2598 C   0  0  0  0  0
   -8.3837   -3.9926  -18.4845 C   0  0  0  0  0
   -7.8031   -2.0742  -17.3881 C   0  0  0  0  0
   -7.1044   -1.5418  -16.1491 C   0  0  0  0  0
   -9.0930   -1.2886  -17.6666 C   0  0  0  0  0
  -10.1502   -2.1534  -18.3644 C   0  0  0  0  0
   -9.5185   -3.2449  -19.2345 C   0  0  0  0  0
   -5.3824   -5.5308  -19.8814 C   0  0  0  0  0
   -4.0486   -3.5334  -20.4466 C   0  0  0  0  0
   -3.5010   -2.2403  -20.0346 C   0  0  0  0  0
   -3.5930   -1.8276  -18.7725 C   0  0  0  0  0
   -3.0752   -0.5310  -18.3177 C   0  0  0  0  0
   -3.2684   -0.1612  -16.9831 C   0  0  0  0  0
   -2.8010    1.0721  -16.5178 C   0  0  0  0  0
   -2.1358    1.9414  -17.3867 C   0  0  0  0  0
   -1.9367    1.5779  -18.7215 C   0  0  0  0  0
   -2.4065    0.3460  -19.1873 C   0  0  0  0  0
   -4.7843   -6.7147  -19.1855 C   0  0  0  0  0
 16 17  1  0  0  0
 16  3  1  0  0  0
 18 19  1  0  0  0
 20 21  1  0  0  0
 22  2  1  0  0  0
 22 23  1  0  0  0
 24 19  1  0  0  0
 25  3  1  0  0  0
 26 25  1  0  0  0
 26  4  1  0  0  0
 27  4  1  0  0  0
 27 28  1  0  0  0
 27  6  1  0  0  0
 27 35  1  0  0  0
 28  5  1  0  0  0
 29  6  1  0  0  0
 29  7  1  0  0  0
 30  7  1  0  0  0
 30 31  1  0  0  0
 30 32  1  0  0  0
 31  8  1  0  0  0
 32  9  1  0  0  0
 32 33  1  0  0  0
 33 10  1  0  0  0
 33 34  1  0  0  0
 34 11  1  0  0  0
 34 29  1  0  0  0
 35 12  1  0  0  0
 35 45  1  0  0  0
 36 12  1  0  0  0
 36 37  1  0  0  0
 38 39  1  0  0  0
 40 41  1  0  0  0
 42 14  1  0  0  0
 42 43  1  0  0  0
 44 39  1  0  0  0
 45 15  1  0  0  0
 45 26  1  0  0  0
 16  1  2  0  0  0
 17 18  2  0  0  0
 19 20  2  0  0  0
 21 22  2  0  0  0
 23 24  2  0  0  0
 36 13  2  0  0  0
 37 38  2  0  0  0
 39 40  2  0  0  0
 41 42  2  0  0  0
 43 44  2  0  0  0
M  END
> <rmsd>
0.688112795

$$$$
CHEMBL1206571 PubChem-44283241


 52 58  0  0  0  0  0  0  0  0999 V2000
   -2.4968   -1.6688  -21.7061 C   0  0  0  0  0
   -2.7981   -2.9280  -20.9041 C   0  0  0  0  0
   -1.6822   -3.9729  -21.0708 C   0  0  0  0  0
   -1.5050   -4.4029  -22.5389 C   0  0  0  0  0
   -2.5181   -5.3938  -23.0344 C   0  0  0  0  0
   -3.8226   -5.1345  -22.9893 C   0  0  0  0  0
   -4.8022   -6.1240  -23.4480 C   0  0  0  0  0
   -6.5946   -6.9871  -24.1170 C   0  0  0  0  0
   -7.8902   -7.2594  -24.5418 C   0  0  0  0  0
   -8.1631   -8.5675  -24.9849 C   0  0  0  0  0
   -7.1449   -9.5538  -24.9802 C   0  0  0  0  0
   -5.8394   -9.2382  -24.5459 C   0  0  0  0  0
   -5.6101   -7.9297  -24.1366 C   0  0  0  0  0
   -1.7553   -5.1410  -20.1189 C   0  0  0  0  0
   -0.6112   -5.4807  -19.3559 C   0  0  0  0  0
   -0.6136   -6.6108  -18.5163 C   0  0  0  0  0
   -1.7752   -7.3717  -18.4745 C   0  0  0  0  0
   -2.8897   -7.0348  -19.1741 C   0  0  0  0  0
   -2.9283   -5.9252  -20.0097 C   0  0  0  0  0
   -3.3617   -8.9407  -18.0207 C   0  0  0  0  0
   -1.9592   -2.0884  -18.6534 C   0  0  0  0  0
   -2.1273   -0.6194  -18.4124 C   0  0  0  0  0
   -3.1447   -0.1668  -17.5665 C   0  0  0  0  0
   -3.3589    1.2007  -17.3895 C   0  0  0  0  0
   -2.5471    2.1254  -18.0533 C   0  0  0  0  0
   -2.7635    3.4928  -17.8850 C   0  0  0  0  0
   -1.9423    4.4141  -18.5447 C   0  0  0  0  0
   -0.9062    3.9668  -19.3731 C   0  0  0  0  0
   -0.6881    2.5964  -19.5501 C   0  0  0  0  0
   -1.5085    1.6711  -18.8993 C   0  0  0  0  0
   -1.3112    0.2981  -19.0829 C   0  0  0  0  0
   -4.3664   -2.7221  -18.9781 C   0  0  0  0  0
   -5.5023   -2.0800  -19.7161 C   0  0  0  0  0
   -7.3595   -0.9487  -19.2715 C   0  0  0  0  0
   -8.0661   -0.3848  -18.0731 C   0  0  0  0  0
   -7.6701   -0.1056  -20.4891 C   0  0  0  0  0
   -6.6866   -2.9964  -19.8736 C   0  0  0  0  0
   -6.8492   -3.4621  -21.2933 C   0  0  0  0  0
   -6.1046   -5.8155  -23.6687 N   0  0  0  0  0
   -3.0412   -2.5930  -19.5003 N   0  0  0  0  0
   -4.5028   -7.3856  -23.7055 O   0  0  0  0  0
   -3.8879   -7.9555  -18.9219 O   0  0  0  0  0
   -2.0107   -8.5271  -17.7574 O   0  0  0  0  0
   -4.5476   -3.2606  -17.8536 O   0  0  0  0  0
   -5.9676   -0.9593  -19.0254 O   0  0  0  0  0
   -9.3209   -0.2440  -18.0853 O   0  0  0  0  0
   -7.3563   -0.0407  -16.9253 O   0  0  0  0  0
   -6.7397    0.3953  -21.1758 O   0  0  0  0  0
   -8.9850    0.0435  -20.9163 O   0  0  0  0  0
   -7.8142   -2.2657  -19.4907 O   0  0  0  0  0
   -6.0765   -3.0589  -22.2076 O   0  0  0  0  0
   -7.9154   -4.2930  -21.6221 O   0  0  0  0  0
  2  1  1  0  0  0
  2  3  1  0  0  0
  2 40  1  0  0  0
  3  4  1  0  0  0
  3 14  1  0  0  0
  4  5  1  0  0  0
  6  7  1  0  0  0
  7 41  1  0  0  0
  8 39  1  0  0  0
  9 10  1  0  0  0
 11 12  1  0  0  0
 13 41  1  0  0  0
 13  8  1  0  0  0
 15 16  1  0  0  0
 17 18  1  0  0  0
 17 43  1  0  0  0
 18 42  1  0  0  0
 19 14  1  0  0  0
 20 42  1  0  0  0
 20 43  1  0  0  0
 21 40  1  0  0  0
 21 22  1  0  0  0
 23 24  1  0  0  0
 25 26  1  0  0  0
 27 28  1  0  0  0
 29 30  1  0  0  0
 30 25  1  0  0  0
 31 22  1  0  0  0
 33 32  1  0  0  0
 33 45  1  0  0  0
 34 45  1  0  0  0
 34 35  1  0  0  0
 34 36  1  0  0  0
 34 50  1  0  0  0
 35 47  1  0  0  0
 36 49  1  0  0  0
 37 50  1  0  0  0
 37 38  1  0  0  0
 37 33  1  0  0  0
 38 52  1  0  0  0
 40 32  1  0  0  0
  5  6  2  0  0  0
  7 39  2  0  0  0
  8  9  2  0  0  0
 10 11  2  0  0  0
 12 13  2  0  0  0
 14 15  2  0  0  0
 16 17  2  0  0  0
 18 19  2  0  0  0
 22 23  2  0  0  0
 24 25  2  0  0  0
 26 27  2  0  0  0
 28 29  2  0  0  0
 30 31  2  0  0  0
 32 44  2  0  0  0
 35 46  2  0  0  0
 36 48  2  0  0  0
 38 51  2  0  0  0
M  END
> <rmsd>
0.73121798

$$$$
CHEMBL439290 PubChem-44413848


 93104  0  0  0  0  0  0  0  0999 V2000
  -10.9599   -4.6230  -20.1461 N   0  0  0  0  0
   -9.2893   -4.7215  -18.4552 N   0  0  0  0  0
  -10.4750   -5.1821  -22.4538 N   0  0  0  0  0
   -7.7122   -5.6875  -21.4293 N   0  0  0  0  0
   -7.1082   -5.3900  -19.2635 N   0  0  0  0  0
   -1.3677   -1.1848  -17.9624 N   0  0  0  0  0
   -1.1276    0.7746  -19.3536 N   0  0  0  0  0
   -2.2535    2.6965  -18.5119 N   0  0  0  0  0
   -2.6756   -0.2397  -16.3734 N   0  0  0  0  0
   -3.5186    2.6316  -16.4424 N   0  0  0  0  0
    8.9127   -1.1806  -19.4773 N   0  0  0  0  0
    7.9933    0.1992  -17.7166 N   0  0  0  0  0
    8.9470    2.3761  -17.6038 N   0  0  0  0  0
   10.3917    0.3409  -20.2675 N   0  0  0  0  0
   10.6819    3.0943  -19.1368 N   0  0  0  0  0
   14.2113   -7.5660  -14.9958 N   0  0  0  0  0
   14.3808   -6.2726  -17.0304 N   0  0  0  0  0
   16.3754   -6.6746  -18.2624 N   0  0  0  0  0
   16.1809   -8.6590  -15.2007 N   0  0  0  0  0
   18.0517   -8.2560  -17.5085 N   0  0  0  0  0
  -10.5796   -4.4764  -18.8344 C   0  0  0  0  0
   -8.4078   -5.1054  -19.4115 C   0  0  0  0  0
   -8.7609   -5.2645  -20.7038 C   0  0  0  0  0
  -10.0686   -5.0225  -21.1000 C   0  0  0  0  0
   -6.7107   -5.7668  -20.5071 C   0  0  0  0  0
   -6.3443   -5.4782  -18.0148 C   0  0  0  0  0
   -4.8551   -5.3052  -18.2657 C   0  0  0  0  0
   -1.3755   -5.5328  -18.1016 C   0  0  0  0  0
   -0.4981   -4.3939  -18.5842 C   0  0  0  0  0
    0.4059   -3.9268  -17.4752 C   0  0  0  0  0
    0.6902   -2.5059  -17.8737 C   0  0  0  0  0
   -0.5423   -2.1430  -18.6896 C   0  0  0  0  0
   -1.6033    0.0893  -18.2863 C   0  0  0  0  0
   -1.4650    2.0967  -19.4646 C   0  0  0  0  0
   -2.7276    1.9930  -17.4409 C   0  0  0  0  0
   -2.3835    0.6520  -17.3414 C   0  0  0  0  0
   -2.0328   -1.3685  -16.7915 C   0  0  0  0  0
    4.9094   -2.0346  -17.8896 C   0  0  0  0  0
    6.0360   -2.8215  -18.5461 C   0  0  0  0  0
    6.9964   -3.2622  -17.4676 C   0  0  0  0  0
    8.3603   -3.1092  -18.0933 C   0  0  0  0  0
    8.0868   -2.3769  -19.3913 C   0  0  0  0  0
    8.8431   -0.0683  -18.7390 C   0  0  0  0  0
    8.0560    1.4382  -17.1420 C   0  0  0  0  0
    9.7957    2.0991  -18.6353 C   0  0  0  0  0
    9.7238    0.8390  -19.2119 C   0  0  0  0  0
    9.8647   -0.9117  -20.4078 C   0  0  0  0  0
   10.2216   -6.1437  -16.4024 C   0  0  0  0  0
   10.8903   -6.4767  -15.0759 C   0  0  0  0  0
   11.5076   -5.2342  -14.4609 C   0  0  0  0  0
   12.9530   -5.6053  -14.2778 C   0  0  0  0  0
   12.9496   -7.1074  -14.4263 C   0  0  0  0  0
   14.8081   -7.1911  -16.1317 C   0  0  0  0  0
   15.1812   -6.0188  -18.1106 C   0  0  0  0  0
   16.8047   -7.5889  -17.3439 C   0  0  0  0  0
   15.9852   -7.8433  -16.2535 C   0  0  0  0  0
   15.0642   -8.4651  -14.4428 C   0  0  0  0  0
   -4.5704   -3.9103  -17.8062 C   0  0  0  0  0
   -5.6852   -3.6704  -16.8064 C   0  0  0  0  0
   -6.1104   -2.2071  -16.6763 C   0  0  0  0  0
   -4.1489   -6.2152  -17.4722 O   0  0  0  0  0
   -4.0553   -7.6703  -19.6657 O   0  0  0  0  0
   -1.9639   -6.1693  -19.1948 O   0  0  0  0  0
   -1.2905   -3.3038  -18.9814 O   0  0  0  0  0
    1.8182   -2.4460  -18.7088 O   0  0  0  0  0
    2.0373    0.1605  -18.8846 O   0  0  0  0  0
    4.2667   -1.2011  -18.8143 O   0  0  0  0  0
    6.7311   -2.0134  -19.4623 O   0  0  0  0  0
    8.9595   -4.3483  -18.3588 O   0  0  0  0  0
   11.4102   -3.7496  -19.0615 O   0  0  0  0  0
   11.1643   -5.6971  -17.3383 O   0  0  0  0  0
   11.8797   -7.4639  -15.2624 O   0  0  0  0  0
   13.4587   -5.2148  -13.0326 O   0  0  0  0  0
   15.1543   -3.3981  -12.2137 O   0  0  0  0  0
   14.7091   -3.4366  -14.7897 O   0  0  0  0  0
   16.1763   -5.4084  -13.5329 O   0  0  0  0  0
   10.8844   -4.9595  -13.2414 O   0  0  0  0  0
   10.7530   -3.0617  -16.6252 O   0  0  0  0  0
    6.7320   -4.5783  -17.0808 O   0  0  0  0  0
    2.6708   -0.8609  -16.5643 O   0  0  0  0  0
    1.5728   -4.6984  -17.4295 O   0  0  0  0  0
   -2.5100   -8.4208  -17.6949 O   0  0  0  0  0
   -4.6694   -3.0475  -18.9001 O   0  0  0  0  0
   -6.7844   -4.5004  -17.1002 O   0  0  0  0  0
   -7.0220   -1.8667  -17.6837 O   0  0  0  0  0
   -7.8964   -0.0894  -15.9416 O   0  0  0  0  0
   -6.1205    0.7521  -17.6870 O   0  0  0  0  0
   -8.7238    0.1742  -18.4151 O   0  0  0  0  0
   -3.1988   -7.1281  -18.5458 P   0  0  0  0  0
    2.6762   -1.0534  -18.2488 P   0  0  0  0  0
   10.5847   -4.1958  -17.8761 P   0  0  0  0  0
   14.8766   -4.3380  -13.3646 P   0  0  0  0  0
   -7.4509   -0.2560  -17.3829 P   0  0  0  0  0
  5 22  1  0  0  0
  6 33  1  0  0  0
 11 43  1  0  0  0
 16 53  1  0  0  0
 21  2  1  0  0  0
 22 23  1  0  0  0
 23  4  1  0  0  0
 24  3  1  0  0  0
 24  1  1  0  0  0
 25  5  1  0  0  0
 26  5  1  0  0  0
 26 27  1  0  0  0
 26 84  1  0  0  0
 27 61  1  0  0  0
 27 58  1  0  0  0
 28 63  1  0  0  0
 29 28  1  0  0  0
 29 30  1  0  0  0
 29 64  1  0  0  0
 30 31  1  0  0  0
 30 81  1  0  0  0
 31 32  1  0  0  0
 31 65  1  0  0  0
 32  6  1  0  0  0
 32 64  1  0  0  0
 34  7  1  0  0  0
 35  8  1  0  0  0
 35 10  1  0  0  0
 36  9  1  0  0  0
 36 33  1  0  0  0
 37  6  1  0  0  0
 38 67  1  0  0  0
 39 38  1  0  0  0
 39 40  1  0  0  0
 39 68  1  0  0  0
 40 41  1  0  0  0
 40 79  1  0  0  0
 41 42  1  0  0  0
 41 69  1  0  0  0
 42 11  1  0  0  0
 42 68  1  0  0  0
 44 12  1  0  0  0
 45 13  1  0  0  0
 45 15  1  0  0  0
 46 14  1  0  0  0
 46 43  1  0  0  0
 47 11  1  0  0  0
 48 71  1  0  0  0
 49 48  1  0  0  0
 49 50  1  0  0  0
 49 72  1  0  0  0
 50 51  1  0  0  0
 50 77  1  0  0  0
 51 52  1  0  0  0
 51 73  1  0  0  0
 52 16  1  0  0  0
 52 72  1  0  0  0
 54 17  1  0  0  0
 55 18  1  0  0  0
 55 20  1  0  0  0
 56 19  1  0  0  0
 56 53  1  0  0  0
 57 16  1  0  0  0
 58 83  1  0  0  0
 58 59  1  0  0  0
 59 84  1  0  0  0
 59 60  1  0  0  0
 60 85  1  0  0  0
 89 61  1  0  0  0
 89 63  1  0  0  0
 89 82  1  0  0  0
 90 65  1  0  0  0
 90 67  1  0  0  0
 90 80  1  0  0  0
 91 69  1  0  0  0
 91 71  1  0  0  0
 91 78  1  0  0  0
 92 73  1  0  0  0
 92 75  1  0  0  0
 92 76  1  0  0  0
 93 85  1  0  0  0
 93 87  1  0  0  0
 93 88  1  0  0  0
 21  1  2  0  0  0
 22  2  2  0  0  0
 23 24  2  0  0  0
 25  4  2  0  0  0
 33  7  2  0  0  0
 34  8  2  0  0  0
 35 36  2  0  0  0
 37  9  2  0  0  0
 43 12  2  0  0  0
 44 13  2  0  0  0
 45 46  2  0  0  0
 47 14  2  0  0  0
 53 17  2  0  0  0
 54 18  2  0  0  0
 55 56  2  0  0  0
 57 19  2  0  0  0
 89 62  2  0  0  0
 90 66  2  0  0  0
 91 70  2  0  0  0
 92 74  2  0  0  0
 93 86  2  0  0  0
M  END
> <rmsd>
0.658747017

$$$$
CHEMBL2058765 PubChem-56950528


 90101  0  0  0  0  0  0  0  0999 V2000
   -1.2705   -7.7269  -21.9331 C   0  0  0  0  0
   -1.7684   -9.1480  -21.7167 C   0  0  0  0  0
   -0.6629  -10.1400  -22.0150 C   0  0  0  0  0
   -1.3431  -11.2180  -22.8105 C   0  0  0  0  0
   -2.8074  -10.8201  -22.7164 C   0  0  0  0  0
   -4.2439  -10.5057  -24.7881 C   0  0  0  0  0
   -4.5805  -12.5251  -25.3673 C   0  0  0  0  0
   -4.9507  -13.7277  -25.9491 C   0  0  0  0  0
   -3.7330  -14.8543  -24.2267 C   0  0  0  0  0
   -3.8172  -12.5261  -24.2540 C   0  0  0  0  0
   -1.8083   -6.4763  -20.1751 C   0  0  0  0  0
   -4.2193   -4.7642  -19.4569 C   0  0  0  0  0
   -4.4433   -3.3520  -18.9885 C   0  0  0  0  0
   -5.9307   -3.3288  -18.7457 C   0  0  0  0  0
   -6.4696   -1.9165  -18.8821 C   0  0  0  0  0
   -5.6878    0.9031  -15.9315 C   0  0  0  0  0
   -5.5849    1.2508  -14.4685 C   0  0  0  0  0
   -5.0338    2.6501  -14.5026 C   0  0  0  0  0
   -4.2747    2.9500  -13.2195 C   0  0  0  0  0
   -3.2060    5.0667   -9.8515 C   0  0  0  0  0
   -1.9620    4.3144   -9.4286 C   0  0  0  0  0
   -1.9192    4.5115   -7.9261 C   0  0  0  0  0
   -0.4889    4.7411   -7.4710 C   0  0  0  0  0
   -3.7535    5.6068   -8.5461 C   0  0  0  0  0
   -3.6334    8.0805   -9.0771 C   0  0  0  0  0
   -5.6773    8.6325   -8.9168 C   0  0  0  0  0
   -6.9245    9.2392   -8.9053 C   0  0  0  0  0
   -7.8741    7.1361   -8.3170 C   0  0  0  0  0
   -5.5704    7.3195   -8.6285 C   0  0  0  0  0
   -4.6907    1.8542  -16.5766 C   0  0  0  0  0
   -3.2908    1.0449  -18.4974 C   0  0  0  0  0
   -1.8301   -0.1525  -17.5211 C   0  0  0  0  0
   -0.7674   -0.9585  -17.1379 C   0  0  0  0  0
   -1.4848   -0.7127  -14.8782 C   0  0  0  0  0
   -2.6688    0.3443  -16.5863 C   0  0  0  0  0
   -5.5701   -5.1230  -20.0678 C   0  0  0  0  0
   -4.4581   -4.9373  -22.3534 C   0  0  0  0  0
   -6.0247   -5.5991  -23.6260 C   0  0  0  0  0
   -6.8598   -5.9906  -24.6646 C   0  0  0  0  0
   -8.5686   -6.3875  -23.0514 C   0  0  0  0  0
   -6.4742   -5.6273  -22.3539 C   0  0  0  0  0
   -0.1736  -10.6684  -20.8195 O   0  0  0  0  0
   -0.8925  -11.1508  -24.1302 O   0  0  0  0  0
   -2.8596   -9.4297  -22.5517 O   0  0  0  0  0
   -2.2236   -6.8140  -21.4654 O   0  0  0  0  0
   -2.4240   -7.6536  -17.8109 O   0  0  0  0  0
   -4.1760   -8.0333  -19.6940 O   0  0  0  0  0
   -3.9528   -5.6127  -18.3695 O   0  0  0  0  0
   -6.1793   -1.1861  -17.7304 O   0  0  0  0  0
   -6.8423    1.0007  -19.0341 O   0  0  0  0  0
   -8.8004   -0.2952  -17.8774 O   0  0  0  0  0
   -6.9731    1.1664  -16.4251 O   0  0  0  0  0
   -3.8763    4.2871  -13.2090 O   0  0  0  0  0
   -4.3878    6.4714  -11.8638 O   0  0  0  0  0
   -6.3454    4.7654  -12.0453 O   0  0  0  0  0
   -4.1636    4.2271  -10.4376 O   0  0  0  0  0
   -0.4507    4.8722   -6.0793 O   0  0  0  0  0
    1.8345    6.1351   -6.3366 O   0  0  0  0  0
    1.9775    3.5233   -6.1804 O   0  0  0  0  0
    1.3424    5.0841   -3.9998 O   0  0  0  0  0
   -2.7209    5.6169   -7.5974 O   0  0  0  0  0
   -2.0449    2.9480   -9.7284 O   0  0  0  0  0
   -4.1870    2.7514  -15.6151 O   0  0  0  0  0
   -6.8262    1.2369  -13.8239 O   0  0  0  0  0
   -6.5344   -4.1612  -19.7013 O   0  0  0  0  0
   -3.7414   -3.0865  -17.8106 O   0  0  0  0  0
   -3.5822  -11.2642  -23.8751 N   0  0  0  0  0
   -4.8725  -11.2615  -25.7354 N   0  0  0  0  0
   -5.7558  -13.7659  -27.1233 N   0  0  0  0  0
   -4.5125  -14.8813  -25.3585 N   0  0  0  0  0
   -3.3755  -13.6633  -23.6617 N   0  0  0  0  0
   -4.2922    6.9471   -8.7258 N   0  0  0  0  0
   -4.4691    9.1510   -9.2074 N   0  0  0  0  0
   -7.0810   10.6185   -9.2011 N   0  0  0  0  0
   -8.0107    8.4679   -8.6045 N   0  0  0  0  0
   -6.6399    6.5461   -8.3263 N   0  0  0  0  0
   -3.5987    1.1055  -17.1789 N   0  0  0  0  0
   -2.1912    0.2680  -18.7445 N   0  0  0  0  0
    0.1441   -1.4869  -18.0926 N   0  0  0  0  0
   -0.6182   -1.2274  -15.8082 N   0  0  0  0  0
   -2.5270    0.0863  -15.2637 N   0  0  0  0  0
   -5.5032   -5.2148  -21.5290 N   0  0  0  0  0
   -4.7496   -5.1700  -23.6655 N   0  0  0  0  0
   -6.4156   -5.9914  -26.0164 N   0  0  0  0  0
   -8.1305   -6.3810  -24.3506 N   0  0  0  0  0
   -7.7350   -6.0116  -22.0332 N   0  0  0  0  0
   -3.0946   -6.9533  -18.9706 P   0  0  0  0  0
   -7.1791    0.1870  -17.7990 P   0  0  0  0  0
   -4.6714    4.9866  -11.8820 P   0  0  0  0  0
    1.1925    4.9370   -5.6761 P   0  0  0  0  0
  1 45  1  0  0  0
  2  1  1  0  0  0
  2  3  1  0  0  0
  2 44  1  0  0  0
  3 42  1  0  0  0
  3  4  1  0  0  0
  4 43  1  0  0  0
  4  5  1  0  0  0
  5 44  1  0  0  0
  5 67  1  0  0  0
  7 68  1  0  0  0
  8 69  1  0  0  0
  8 70  1  0  0  0
  9 71  1  0  0  0
 10 67  1  0  0  0
 10  7  1  0  0  0
 11 45  1  0  0  0
 11 87  1  0  0  0
 12 48  1  0  0  0
 12 13  1  0  0  0
 13 14  1  0  0  0
 13 66  1  0  0  0
 14 15  1  0  0  0
 14 65  1  0  0  0
 15 49  1  0  0  0
 16 52  1  0  0  0
 16 17  1  0  0  0
 17 18  1  0  0  0
 17 64  1  0  0  0
 18 19  1  0  0  0
 18 63  1  0  0  0
 19 53  1  0  0  0
 20 56  1  0  0  0
 20 21  1  0  0  0
 21 22  1  0  0  0
 21 62  1  0  0  0
 22 23  1  0  0  0
 22 61  1  0  0  0
 23 57  1  0  0  0
 24 61  1  0  0  0
 24 72  1  0  0  0
 24 20  1  0  0  0
 26 73  1  0  0  0
 27 74  1  0  0  0
 27 75  1  0  0  0
 28 76  1  0  0  0
 29 72  1  0  0  0
 29 26  1  0  0  0
 30 63  1  0  0  0
 30 77  1  0  0  0
 30 16  1  0  0  0
 32 78  1  0  0  0
 33 79  1  0  0  0
 33 80  1  0  0  0
 34 81  1  0  0  0
 35 77  1  0  0  0
 35 32  1  0  0  0
 36 65  1  0  0  0
 36 82  1  0  0  0
 36 12  1  0  0  0
 38 83  1  0  0  0
 39 84  1  0  0  0
 39 85  1  0  0  0
 40 86  1  0  0  0
 41 82  1  0  0  0
 41 38  1  0  0  0
 67  6  1  0  0  0
 72 25  1  0  0  0
 77 31  1  0  0  0
 82 37  1  0  0  0
 87 47  1  0  0  0
 87 48  1  0  0  0
 88 49  1  0  0  0
 88 51  1  0  0  0
 88 52  1  0  0  0
 89 53  1  0  0  0
 89 55  1  0  0  0
 89 56  1  0  0  0
 90 57  1  0  0  0
 90 59  1  0  0  0
 90 60  1  0  0  0
  6 68  2  0  0  0
  7  8  2  0  0  0
  9 70  2  0  0  0
 10 71  2  0  0  0
 25 73  2  0  0  0
 26 27  2  0  0  0
 28 75  2  0  0  0
 29 76  2  0  0  0
 31 78  2  0  0  0
 32 33  2  0  0  0
 34 80  2  0  0  0
 35 81  2  0  0  0
 37 83  2  0  0  0
 38 39  2  0  0  0
 40 85  2  0  0  0
 41 86  2  0  0  0
 87 46  2  0  0  0
 88 50  2  0  0  0
 89 54  2  0  0  0
 90 58  2  0  0  0
M  END
> <rmsd>
0.743741035

$$$$
CHEMBL2367949 PubChem-73346801


 41 43  0  0  0  0  0  0  0  0999 V2000
   -0.1606    4.1549  -23.5707 C   0  0  0  0  0
   -1.3254    4.5840  -22.7438 C   0  0  0  0  0
   -0.2367    6.7976  -22.2537 C   0  0  0  0  0
   -2.4466    6.2623  -21.2284 C   0  0  0  0  0
   -2.5197    5.4121  -19.9705 C   0  0  0  0  0
   -1.3584    5.7327  -19.0455 C   0  0  0  0  0
   -1.2282    4.6554  -17.9811 C   0  0  0  0  0
    0.6578    3.3811  -19.0112 C   0  0  0  0  0
   -1.5341    2.2244  -18.6551 C   0  0  0  0  0
   -1.7387   -0.0781  -19.2840 C   0  0  0  0  0
   -3.5559    1.0055  -18.3057 C   0  0  0  0  0
   -2.8566    2.1598  -18.2002 C   0  0  0  0  0
   -4.7821    2.4549  -17.3457 C   0  0  0  0  0
   -5.8129    0.1581  -17.5545 C   0  0  0  0  0
   -7.0269   -1.4131  -18.5596 C   0  0  0  0  0
   -7.2608   -2.0695  -19.9093 C   0  0  0  0  0
   -8.0188   -0.2960  -18.3327 C   0  0  0  0  0
   -7.2060    0.7571  -17.6136 C   0  0  0  0  0
   -2.3130    3.8087  -22.6411 O   0  0  0  0  0
   -5.7380   -0.8660  -18.5135 O   0  0  0  0  0
   -8.3624   -2.9252  -19.8370 O   0  0  0  0  0
   -8.8418   -5.4842  -19.8199 O   0  0  0  0  0
   -7.1834   -4.6284  -21.6538 O   0  0  0  0  0
   -6.4678   -4.7368  -18.9465 O   0  0  0  0  0
   -5.0817   -6.1721  -20.6663 O   0  0  0  0  0
   -6.9036   -7.4650  -19.2890 O   0  0  0  0  0
   -4.5481   -6.5198  -18.1239 O   0  0  0  0  0
   -2.8205   -8.3525  -17.4291 O   0  0  0  0  0
   -5.2978   -9.1417  -17.5971 O   0  0  0  0  0
   -3.7771   -8.5960  -19.8426 O   0  0  0  0  0
   -9.0880   -0.7603  -17.5615 O   0  0  0  0  0
   -7.6703    0.9879  -16.3159 O   0  0  0  0  0
   -1.3241    5.8508  -22.0639 N   0  0  0  0  0
   -0.7273    3.4147  -18.5658 N   0  0  0  0  0
   -1.0108    1.0798  -19.1955 N   0  0  0  0  0
   -3.0249   -0.1251  -18.8301 N   0  0  0  0  0
   -3.6083    3.0982  -17.5958 N   0  0  0  0  0
   -4.7848    1.1728  -17.7960 N   0  0  0  0  0
   -7.7342   -4.4841  -20.0596 P   0  0  0  0  0
   -5.7403   -6.2339  -19.3052 P   0  0  0  0  0
   -4.0823   -8.1526  -18.2366 P   0  0  0  0  0
  1  2  1  0  0  0
  2 33  1  0  0  0
  3 33  1  0  0  0
  4 33  1  0  0  0
  4  5  1  0  0  0
  5  6  1  0  0  0
  6  7  1  0  0  0
  7 34  1  0  0  0
  8 34  1  0  0  0
 10 35  1  0  0  0
 11 36  1  0  0  0
 12 37  1  0  0  0
 12  9  1  0  0  0
 13 38  1  0  0  0
 14 38  1  0  0  0
 14 20  1  0  0  0
 15 20  1  0  0  0
 15 16  1  0  0  0
 15 17  1  0  0  0
 16 21  1  0  0  0
 17 31  1  0  0  0
 17 18  1  0  0  0
 18 32  1  0  0  0
 18 14  1  0  0  0
 34  9  1  0  0  0
 38 11  1  0  0  0
 39 21  1  0  0  0
 39 23  1  0  0  0
 39 24  1  0  0  0
 40 24  1  0  0  0
 40 26  1  0  0  0
 40 27  1  0  0  0
 41 27  1  0  0  0
 41 29  1  0  0  0
 41 30  1  0  0  0
  2 19  2  0  0  0
  9 35  2  0  0  0
 10 36  2  0  0  0
 11 12  2  0  0  0
 13 37  2  0  0  0
 39 22  2  0  0  0
 40 25  2  0  0  0
 41 28  2  0  0  0
M  END
> <rmsd>
0.829313338

$$$$
CHEMBL2057905 PubChem-70688465


 92103  0  0  0  0  0  0  0  0999 V2000
   -3.2315   -8.4099  -17.7984 P   0  0  0  0  0
   -7.5805   -1.4238  -19.5770 P   0  0  0  0  0
   -6.5738    4.3964  -14.3404 P   0  0  0  0  0
   -7.3398   11.3942  -15.9740 P   0  0  0  0  0
   -3.8916   -7.4397  -16.8400 O   0  0  0  0  0
   -3.7474   -9.9877  -17.4546 O   0  0  0  0  0
   -1.5518   -8.3057  -17.6262 O   0  0  0  0  0
   -5.0869   -8.0365  -19.6318 O   0  0  0  0  0
   -7.7454   -4.9295  -21.2893 O   0  0  0  0  0
   -7.5406   -3.1174  -19.4176 O   0  0  0  0  0
   -6.2287   -0.8311  -19.2222 O   0  0  0  0  0
   -8.7809   -0.8243  -18.5345 O   0  0  0  0  0
   -9.4209    3.0752  -16.5304 O   0  0  0  0  0
   -7.3508    3.0017  -14.9319 O   0  0  0  0  0
   -5.4780    4.8717  -15.2706 O   0  0  0  0  0
   -8.0844    6.3161  -15.3449 O   0  0  0  0  0
  -10.5923    9.4283  -16.6266 O   0  0  0  0  0
   -8.8664   10.9371  -15.3826 O   0  0  0  0  0
   -6.2594   11.0524  -14.9709 O   0  0  0  0  0
   -7.7476   13.8730  -15.1383 O   0  0  0  0  0
   -6.6823   13.8154  -11.1161 O   0  0  0  0  0
   -9.1344   14.4218  -10.5608 O   0  0  0  0  0
   -7.7197   16.0805  -13.3295 O   0  0  0  0  0
   -7.0306   10.5932  -17.4308 O   0  0  0  0  0
   -9.9520    7.9607  -13.8112 O   0  0  0  0  0
   -5.8839    4.0336  -12.8365 O   0  0  0  0  0
   -7.0420    0.5396  -16.7521 O   0  0  0  0  0
   -7.9659   -1.0262  -21.1742 O   0  0  0  0  0
   -5.3819   -5.3972  -18.7319 O   0  0  0  0  0
   -3.6984   -7.9978  -19.4983 C   0  0  0  0  0
   -5.3922   -7.0016  -20.5174 C   0  0  0  0  0
   -6.1572   -5.9040  -19.7940 C   0  0  0  0  0
   -6.4580   -4.7882  -20.7619 C   0  0  0  0  0
   -6.3090   -3.5387  -19.9384 C   0  0  0  0  0
   -8.6359    0.5646  -18.5408 C   0  0  0  0  0
   -8.2951    1.0543  -17.1437 C   0  0  0  0  0
   -8.2545    2.5680  -17.1091 C   0  0  0  0  0
   -7.0304    2.8858  -16.2911 C   0  0  0  0  0
   -7.7990    5.7180  -14.1182 C   0  0  0  0  0
   -9.4792    6.2687  -15.4675 C   0  0  0  0  0
  -10.1136    7.6269  -15.1722 C   0  0  0  0  0
   -9.5327    8.7159  -16.0527 C   0  0  0  0  0
   -8.7684    9.5733  -15.0756 C   0  0  0  0  0
   -7.3274   13.1872  -16.2791 C   0  0  0  0  0
   -6.5723   14.3560  -14.5518 C   0  0  0  0  0
   -6.8693   14.9675  -13.1893 C   0  0  0  0  0
   -7.4907   13.9465  -12.2541 C   0  0  0  0  0
   -8.8308   14.5445  -11.9186 C   0  0  0  0  0
   -8.6698   15.9939  -12.2966 C   0  0  0  0  0
  -11.0033   16.8313  -11.8856 C   0  0  0  0  0
  -11.6281   17.4441  -13.8195 C   0  0  0  0  0
  -12.2778   17.9192  -14.9509 C   0  0  0  0  0
  -10.3298   17.3690  -16.2132 C   0  0  0  0  0
  -10.3695   16.9617  -13.9149 C   0  0  0  0  0
   -9.4607    9.2782  -13.7645 C   0  0  0  0  0
   -7.9315   10.6251  -12.2894 C   0  0  0  0  0
   -7.3610    9.2333  -10.7983 C   0  0  0  0  0
   -6.8764    8.5540   -9.6896 C   0  0  0  0  0
   -8.0869    6.6354  -10.4215 C   0  0  0  0  0
   -8.1776    8.6064  -11.6712 C   0  0  0  0  0
   -6.1981    1.6345  -16.4738 C   0  0  0  0  0
   -5.4437    2.2115  -18.8257 C   0  0  0  0  0
   -3.3762    1.7456  -18.7298 C   0  0  0  0  0
   -2.0361    1.4734  -18.9550 C   0  0  0  0  0
   -1.8765    0.7577  -16.6851 C   0  0  0  0  0
   -3.9205    1.5154  -17.5138 C   0  0  0  0  0
   -5.4260   -3.9905  -18.7947 C   0  0  0  0  0
   -3.4931   -2.5516  -18.0939 C   0  0  0  0  0
   -2.0246   -3.0195  -19.5528 C   0  0  0  0  0
   -0.9047   -3.1490  -20.3592 C   0  0  0  0  0
   -2.1210   -4.7340  -21.6699 C   0  0  0  0  0
   -3.1385   -3.7285  -19.8321 C   0  0  0  0  0
   -9.9551   16.5595  -12.7061 N   0  0  0  0  0
  -12.0609   17.3819  -12.5466 N   0  0  0  0  0
  -13.5933   18.4520  -14.8857 N   0  0  0  0  0
  -11.6022   17.8746  -16.1372 N   0  0  0  0  0
   -9.7006   16.9011  -15.0930 N   0  0  0  0  0
   -8.5453    9.4636  -12.6357 N   0  0  0  0  0
   -7.1858   10.5163  -11.1555 N   0  0  0  0  0
   -6.0340    9.1893   -8.7352 N   0  0  0  0  0
   -7.2537    7.2523   -9.5228 N   0  0  0  0  0
   -8.5636    7.3168  -11.5067 N   0  0  0  0  0
   -5.2228    1.8060  -17.5474 N   0  0  0  0  0
   -4.3152    2.1812  -19.5898 N   0  0  0  0  0
   -1.4327    1.6841  -20.2285 N   0  0  0  0  0
   -1.3054    0.9810  -17.9114 N   0  0  0  0  0
   -3.2049    1.0189  -16.4770 N   0  0  0  0  0
   -4.0809   -3.4465  -18.9255 N   0  0  0  0  0
   -2.2106   -2.2588  -18.4571 N   0  0  0  0  0
    0.2899   -2.4192  -20.0964 N   0  0  0  0  0
   -0.9765   -4.0203  -21.4107 N   0  0  0  0  0
   -3.2218   -4.5883  -20.8747 N   0  0  0  0  0
  1  6  1  0  0  0
  1  7  1  0  0  0
  1 30  1  0  0  0
  2 10  1  0  0  0
  2 12  1  0  0  0
  2 28  1  0  0  0
  3 14  1  0  0  0
  3 39  1  0  0  0
  3 26  1  0  0  0
  4 18  1  0  0  0
  4 44  1  0  0  0
  4 24  1  0  0  0
 30  8  1  0  0  0
 31  8  1  0  0  0
 32 31  1  0  0  0
 32 33  1  0  0  0
 32 29  1  0  0  0
 33  9  1  0  0  0
 33 34  1  0  0  0
 34 10  1  0  0  0
 34 67  1  0  0  0
 35 12  1  0  0  0
 36 35  1  0  0  0
 36 37  1  0  0  0
 36 27  1  0  0  0
 37 13  1  0  0  0
 37 38  1  0  0  0
 38 14  1  0  0  0
 38 61  1  0  0  0
 39 16  1  0  0  0
 40 16  1  0  0  0
 41 40  1  0  0  0
 41 42  1  0  0  0
 41 25  1  0  0  0
 42 17  1  0  0  0
 42 43  1  0  0  0
 43 18  1  0  0  0
 43 55  1  0  0  0
 44 20  1  0  0  0
 45 20  1  0  0  0
 46 45  1  0  0  0
 46 47  1  0  0  0
 46 23  1  0  0  0
 47 21  1  0  0  0
 47 48  1  0  0  0
 48 22  1  0  0  0
 48 49  1  0  0  0
 49 23  1  0  0  0
 49 73  1  0  0  0
 51 74  1  0  0  0
 52 75  1  0  0  0
 52 76  1  0  0  0
 53 77  1  0  0  0
 54 73  1  0  0  0
 54 51  1  0  0  0
 55 25  1  0  0  0
 55 78  1  0  0  0
 57 79  1  0  0  0
 58 80  1  0  0  0
 58 81  1  0  0  0
 59 82  1  0  0  0
 60 78  1  0  0  0
 60 57  1  0  0  0
 61 27  1  0  0  0
 61 83  1  0  0  0
 63 84  1  0  0  0
 64 85  1  0  0  0
 64 86  1  0  0  0
 65 87  1  0  0  0
 66 83  1  0  0  0
 66 63  1  0  0  0
 67 29  1  0  0  0
 67 88  1  0  0  0
 69 89  1  0  0  0
 70 90  1  0  0  0
 70 91  1  0  0  0
 71 92  1  0  0  0
 72 88  1  0  0  0
 72 69  1  0  0  0
 73 50  1  0  0  0
 78 56  1  0  0  0
 83 62  1  0  0  0
 88 68  1  0  0  0
  1  5  2  0  0  0
  2 11  2  0  0  0
  3 15  2  0  0  0
  4 19  2  0  0  0
 50 74  2  0  0  0
 51 52  2  0  0  0
 53 76  2  0  0  0
 54 77  2  0  0  0
 56 79  2  0  0  0
 57 58  2  0  0  0
 59 81  2  0  0  0
 60 82  2  0  0  0
 62 84  2  0  0  0
 63 64  2  0  0  0
 65 86  2  0  0  0
 66 87  2  0  0  0
 68 89  2  0  0  0
 69 70  2  0  0  0
 71 91  2  0  0  0
 72 92  2  0  0  0
M  END
> <rmsd>
0.582102835

$$$$
CHEMBL404038 PubChem-131885181 PubChem-503593


 75 83  0  0  0  0  0  0  0  0999 V2000
   -7.7451    4.3767  -19.4979 O   0  0  0  0  0
   -5.4248    5.5112  -18.1296 O   0  0  0  0  0
   -4.5369    4.6672  -15.0863 O   0  0  0  0  0
   -7.0934    4.2732  -15.2793 O   0  0  0  0  0
  -10.3193    3.9003  -19.2847 O   0  0  0  0  0
   -8.7327    2.2357  -18.0264 O   0  0  0  0  0
   -5.8409   -1.5773  -18.7012 O   0  0  0  0  0
   -4.4812   -2.8512  -20.5272 O   0  0  0  0  0
   -6.3822   -4.2186  -19.3313 O   0  0  0  0  0
   -8.3710   -9.2232  -20.3544 O   0  0  0  0  0
   -7.0985  -11.2617  -21.4055 O   0  0  0  0  0
   -8.4471  -11.7844  -19.2354 O   0  0  0  0  0
  -10.4270  -10.2165  -18.5396 O   0  0  0  0  0
   -9.8109  -12.0967  -16.8431 O   0  0  0  0  0
   -7.3648  -13.1243  -16.8974 O   0  0  0  0  0
   -8.9665  -14.0022  -15.0380 O   0  0  0  0  0
   -7.8914  -11.4711  -14.9303 O   0  0  0  0  0
   -8.2114   -9.8397  -17.2132 O   0  0  0  0  0
   -6.0979  -10.3277  -19.1815 O   0  0  0  0  0
   -6.8187   -7.3879  -18.8553 O   0  0  0  0  0
   -7.1725   -5.2075  -21.5958 O   0  0  0  0  0
   -4.0084   -3.5447  -18.0480 O   0  0  0  0  0
   -6.4105    0.3699  -16.6540 O   0  0  0  0  0
   -9.5659   -0.1509  -17.6301 O   0  0  0  0  0
   -8.9626    2.2749  -20.8047 O   0  0  0  0  0
   -7.7753    5.0553  -18.2762 C   0  0  0  0  0
   -6.4809    4.8149  -17.5190 C   0  0  0  0  0
   -6.6140    5.2962  -16.1009 C   0  0  0  0  0
   -5.2112    5.7008  -15.7424 C   0  0  0  0  0
   -4.5607    5.9256  -17.0949 C   0  0  0  0  0
   -2.9637    7.8470  -17.3864 C   0  0  0  0  0
   -4.2806    9.5054  -17.5376 C   0  0  0  0  0
   -4.9027   10.7381  -17.6689 C   0  0  0  0  0
   -7.0030    9.6237  -17.4556 C   0  0  0  0  0
   -5.0242    8.3915  -17.3695 C   0  0  0  0  0
   -7.7799    1.2796  -18.4022 C   0  0  0  0  0
   -8.2540   -0.1225  -18.1142 C   0  0  0  0  0
   -7.3124   -0.6366  -17.0507 C   0  0  0  0  0
   -6.5635   -1.8695  -17.5400 C   0  0  0  0  0
   -5.7313   -5.4079  -19.6790 C   0  0  0  0  0
   -6.4360   -6.1001  -20.8120 C   0  0  0  0  0
   -7.3510   -7.0761  -20.1202 C   0  0  0  0  0
   -7.4683   -8.3414  -20.9536 C   0  0  0  0  0
   -5.8700   -6.3943  -18.5366 C   0  0  0  0  0
   -3.9151   -6.9401  -17.0553 C   0  0  0  0  0
   -2.7288   -8.1799  -18.3086 C   0  0  0  0  0
   -1.7856   -9.0086  -18.9000 C   0  0  0  0  0
   -3.1265   -9.0042  -20.8750 C   0  0  0  0  0
   -3.8225   -7.7994  -19.0034 C   0  0  0  0  0
   -6.5304    1.4449  -17.5571 C   0  0  0  0  0
   -5.1912    2.3687  -19.4866 C   0  0  0  0  0
   -3.3158    1.4092  -19.2534 C   0  0  0  0  0
   -2.0108    0.9440  -19.3225 C   0  0  0  0  0
   -2.4428   -0.3533  -17.3698 C   0  0  0  0  0
   -4.1339    0.9819  -18.2680 C   0  0  0  0  0
   -4.2139    7.3306  -17.2709 N   0  0  0  0  0
   -2.9699    9.2007  -17.5522 N   0  0  0  0  0
   -6.2686   10.7716  -17.6239 N   0  0  0  0  0
   -6.3798    8.4132  -17.3263 N   0  0  0  0  0
   -4.1502   11.9340  -17.8443 N   0  0  0  0  0
   -4.5846   -7.0131  -18.2330 N   0  0  0  0  0
   -2.7525   -7.6546  -17.0695 N   0  0  0  0  0
   -2.0075   -9.4063  -20.1880 N   0  0  0  0  0
   -4.0516   -8.1905  -20.2808 N   0  0  0  0  0
   -0.6224   -9.4330  -18.1958 N   0  0  0  0  0
   -5.3358    1.5633  -18.4005 N   0  0  0  0  0
   -3.9507    2.2918  -20.0436 N   0  0  0  0  0
   -1.5977    0.0603  -18.3676 N   0  0  0  0  0
   -3.7269    0.1117  -17.3113 N   0  0  0  0  0
   -1.1219    1.3736  -20.3462 N   0  0  0  0  0
   -8.9760    3.2128  -19.3957 P   0  0  0  0  0
   -5.1585   -3.0482  -19.1886 P   0  0  0  0  0
   -7.4978  -10.6546  -20.0783 P   0  0  0  0  0
   -9.2367  -10.9585  -17.9725 P   0  0  0  0  0
   -8.4720  -12.6775  -15.9670 P   0  0  0  0  0
 26  1  1  0  0  0
 27 26  1  0  0  0
 27 28  1  0  0  0
 27  2  1  0  0  0
 28 29  1  0  0  0
 28  4  1  0  0  0
 29 30  1  0  0  0
 29  3  1  0  0  0
 30  2  1  0  0  0
 30 56  1  0  0  0
 32 57  1  0  0  0
 33 58  1  0  0  0
 33 60  1  0  0  0
 34 59  1  0  0  0
 35 56  1  0  0  0
 35 32  1  0  0  0
 36  6  1  0  0  0
 36 37  1  0  0  0
 37 38  1  0  0  0
 37 24  1  0  0  0
 38 39  1  0  0  0
 38 23  1  0  0  0
 39  7  1  0  0  0
 40  9  1  0  0  0
 40 41  1  0  0  0
 41 42  1  0  0  0
 41 21  1  0  0  0
 42 43  1  0  0  0
 42 20  1  0  0  0
 43 10  1  0  0  0
 44 20  1  0  0  0
 44 61  1  0  0  0
 44 40  1  0  0  0
 46 62  1  0  0  0
 47 63  1  0  0  0
 47 65  1  0  0  0
 48 64  1  0  0  0
 49 61  1  0  0  0
 49 46  1  0  0  0
 50 23  1  0  0  0
 50 66  1  0  0  0
 50 36  1  0  0  0
 52 67  1  0  0  0
 53 68  1  0  0  0
 53 70  1  0  0  0
 54 69  1  0  0  0
 55 66  1  0  0  0
 55 52  1  0  0  0
 56 31  1  0  0  0
 61 45  1  0  0  0
 66 51  1  0  0  0
 71  1  1  0  0  0
 71  6  1  0  0  0
 71 25  1  0  0  0
 72  7  1  0  0  0
 72  9  1  0  0  0
 72 22  1  0  0  0
 73 10  1  0  0  0
 73 12  1  0  0  0
 73 19  1  0  0  0
 74 12  1  0  0  0
 74 14  1  0  0  0
 74 18  1  0  0  0
 75 14  1  0  0  0
 75 16  1  0  0  0
 75 17  1  0  0  0
 31 57  2  0  0  0
 32 33  2  0  0  0
 34 58  2  0  0  0
 35 59  2  0  0  0
 45 62  2  0  0  0
 46 47  2  0  0  0
 48 63  2  0  0  0
 49 64  2  0  0  0
 51 67  2  0  0  0
 52 53  2  0  0  0
 54 68  2  0  0  0
 55 69  2  0  0  0
 71  5  2  0  0  0
 72  8  2  0  0  0
 73 11  2  0  0  0
 74 13  2  0  0  0
 75 15  2  0  0  0
M  END
> <rmsd>
0.869312167

$$$$
CHEMBL3215340


109121  0  0  0  0  0  0  0  0999 V2000
   -6.1034   -0.4813  -18.3785 C   0  0  0  0  0
   -4.5601   -0.9386  -20.3506 C   0  0  0  0  0
   -3.8705   -2.0117  -21.1561 C   0  0  0  0  0
   -2.1446   -1.0620  -22.7663 C   0  0  0  0  0
   -0.9833   -1.4640  -21.8990 C   0  0  0  0  0
    0.5649   -2.4045  -23.7363 C   0  0  0  0  0
    1.6323   -3.4042  -24.0664 C   0  0  0  0  0
    1.0242   -4.7037  -24.5267 C   0  0  0  0  0
    0.6866   -5.7235  -23.6151 C   0  0  0  0  0
    0.1169   -6.9174  -24.0902 C   0  0  0  0  0
   -0.0818   -7.1068  -25.4630 C   0  0  0  0  0
    0.2757   -6.1100  -26.3739 C   0  0  0  0  0
    0.7971   -5.6676  -28.7828 C   0  0  0  0  0
    1.7830   -4.7031  -28.5173 C   0  0  0  0  0
    2.4617   -4.0503  -29.5450 C   0  0  0  0  0
    3.5077   -3.0335  -29.1791 C   0  0  0  0  0
    4.7758   -3.6887  -28.7113 C   0  0  0  0  0
    4.6239   -2.5800  -26.4343 C   0  0  0  0  0
    3.7848   -3.3769  -25.4779 C   0  0  0  0  0
    5.6584   -1.7166  -25.7103 C   0  0  0  0  0
    5.0363   -0.8369  -24.6677 C   0  0  0  0  0
    5.4652   -0.9405  -23.3403 C   0  0  0  0  0
    4.8397   -0.1913  -22.3404 C   0  0  0  0  0
    3.7694    0.6514  -22.6588 C   0  0  0  0  0
    1.7962    1.0966  -21.2465 C   0  0  0  0  0
    1.1997    1.8685  -20.2214 C   0  0  0  0  0
   -0.0697    1.5143  -19.7388 C   0  0  0  0  0
   -1.8313    1.8118  -18.0691 C   0  0  0  0  0
   -1.8662    0.6146  -17.3291 C   0  0  0  0  0
   -3.0928    0.0789  -16.9370 C   0  0  0  0  0
   -4.2819    0.7547  -17.2201 C   0  0  0  0  0
   -5.5795    0.0329  -17.0294 C   0  0  0  0  0
   -4.2376    1.9964  -17.8737 C   0  0  0  0  0
   -3.0126    2.5253  -18.2891 C   0  0  0  0  0
   -0.7575    0.4386  -20.3185 C   0  0  0  0  0
   -0.2005   -0.3027  -21.3514 C   0  0  0  0  0
    1.0786    0.0270  -21.8096 C   0  0  0  0  0
    2.7489    3.8046  -20.3700 C   0  0  0  0  0
    4.1311    5.4220  -19.2680 C   0  0  0  0  0
    2.8535    6.1511  -18.8005 C   0  0  0  0  0
    1.6864    6.0298  -19.7821 C   0  0  0  0  0
    2.0270    5.0564  -20.9121 C   0  0  0  0  0
    4.8960    6.1291  -20.3598 C   0  0  0  0  0
    3.3545    0.7773  -23.9914 C   0  0  0  0  0
    3.9921    0.0403  -24.9951 C   0  0  0  0  0
    3.6704   -0.7696  -29.7460 C   0  0  0  0  0
    2.1689   -4.3836  -30.8751 C   0  0  0  0  0
    1.1895   -5.3419  -31.1581 C   0  0  0  0  0
    0.5028   -5.9791  -30.1175 C   0  0  0  0  0
    0.7911   -4.9043  -25.8886 C   0  0  0  0  0
   -4.8097   -3.1759  -21.2990 C   0  0  0  0  0
   -5.0152   -3.9996  -20.1868 C   0  0  0  0  0
   -6.0725   -4.9147  -20.1496 C   0  0  0  0  0
   -6.3634   -5.6529  -18.8909 C   0  0  0  0  0
   -6.5622   -4.9445  -17.6712 C   0  0  0  0  0
   -6.2458   -3.4689  -17.5457 C   0  0  0  0  0
   -7.3819   -1.2682  -18.2330 C   0  0  0  0  0
   -5.6159   -3.1138  -16.2314 C   0  0  0  0  0
   -7.0997   -5.6209  -16.5648 C   0  0  0  0  0
   -7.3855   -6.9814  -16.6288 C   0  0  0  0  0
   -7.1088   -7.6966  -17.7887 C   0  0  0  0  0
   -6.5762   -7.0594  -18.9107 C   0  0  0  0  0
   -5.1485   -7.6331  -20.8734 C   0  0  0  0  0
   -5.1615   -8.5876  -22.0751 C   0  0  0  0  0
   -4.8080  -10.0157  -21.6512 C   0  0  0  0  0
   -3.5901  -10.0259  -20.7194 C   0  0  0  0  0
   -3.7749   -8.9851  -19.6086 C   0  0  0  0  0
   -2.5790   -8.9871  -18.6730 C   0  0  0  0  0
   -6.9215   -5.0216  -21.2724 C   0  0  0  0  0
   -6.6968   -4.2272  -22.3999 C   0  0  0  0  0
   -5.6605   -3.2938  -22.4064 C   0  0  0  0  0
   -5.0912   -1.2744  -19.0652 N   0  0  0  0  0
   -3.4696   -1.5001  -22.4642 N   0  0  0  0  0
   -0.1420   -2.5069  -22.4946 N   0  0  0  0  0
    5.2891   -3.4471  -27.3970 N   0  0  0  0  0
    2.5243   -2.8382  -25.0790 N   0  0  0  0  0
    0.8480    4.7013  -21.6869 N   0  0  0  0  0
    3.7816   -2.1176  -30.2787 N   0  0  0  0  0
   -7.4196   -2.6452  -17.8192 N   0  0  0  0  0
   -4.7076    0.2261  -20.8130 O   0  0  0  0  0
   -1.9634   -0.3251  -23.7712 O   0  0  0  0  0
    0.3018   -1.4754  -24.5483 O   0  0  0  0  0
    0.1254   -6.3507  -27.7503 O   0  0  0  0  0
    5.4103   -4.4518  -29.4882 O   0  0  0  0  0
    4.2063   -4.4589  -24.9890 O   0  0  0  0  0
    3.1184    1.3515  -21.6393 O   0  0  0  0  0
   -0.6527    2.2405  -18.6867 O   0  0  0  0  0
   -6.5177    0.8822  -16.4359 O   0  0  0  0  0
    1.8427    2.9737  -19.6511 O   0  0  0  0  0
    3.9053    4.0509  -19.5705 O   0  0  0  0  0
    0.5556    5.5990  -19.0804 O   0  0  0  0  0
    3.1040    7.4915  -18.5032 O   0  0  0  0  0
    5.0818    5.5767  -21.4781 O   0  0  0  0  0
    5.4386    7.3847  -20.1240 O   0  0  0  0  0
   -0.4664   -6.9293  -30.4159 O   0  0  0  0  0
   -0.2422   -7.9279  -23.2058 O   0  0  0  0  0
   -8.4650   -0.6912  -18.5049 O   0  0  0  0  0
   -6.3311   -2.8723  -15.2235 O   0  0  0  0  0
   -4.2330   -3.0966  -16.1154 O   0  0  0  0  0
   -6.2637   -7.8682  -20.0123 O   0  0  0  0  0
   -3.9226   -7.6972  -20.1682 O   0  0  0  0  0
   -2.8584   -8.2098  -17.5502 O   0  0  0  0  0
   -3.4146  -11.3022  -20.1766 O   0  0  0  0  0
   -5.9134  -10.6051  -21.0280 O   0  0  0  0  0
   -4.2527   -8.1449  -23.0375 O   0  0  0  0  0
   -7.9285   -7.6284  -15.5270 O   0  0  0  0  0
   -8.0059   -5.8907  -21.2703 O   0  0  0  0  0
   -0.3993   -0.2754  -16.9593 Cl  0  0  0  0  0
    0.9890   -5.5342  -21.8892 Cl  0  0  0  0  0
  1 72  1  0  0  0
  1 57  1  0  0  0
  3  2  1  0  0  0
  3 73  1  0  0  0
  3 51  1  0  0  0
  5  4  1  0  0  0
  5 74  1  0  0  0
  5 36  1  0  0  0
  7  6  1  0  0  0
  7  8  1  0  0  0
  7 76  1  0  0  0
  9 10  1  0  0  0
  9109  1  0  0  0
 10 96  1  0  0  0
 11 12  1  0  0  0
 12 83  1  0  0  0
 13 83  1  0  0  0
 14 15  1  0  0  0
 16 15  1  0  0  0
 16 17  1  0  0  0
 16 78  1  0  0  0
 17 75  1  0  0  0
 18 75  1  0  0  0
 18 19  1  0  0  0
 18 20  1  0  0  0
 19 76  1  0  0  0
 20 21  1  0  0  0
 22 23  1  0  0  0
 24 86  1  0  0  0
 24 44  1  0  0  0
 25 86  1  0  0  0
 26 27  1  0  0  0
 26 89  1  0  0  0
 27 87  1  0  0  0
 28 87  1  0  0  0
 29 30  1  0  0  0
 29108  1  0  0  0
 31 33  1  0  0  0
 32 31  1  0  0  0
 32 88  1  0  0  0
 32  1  1  0  0  0
 34 28  1  0  0  0
 35 36  1  0  0  0
 37 25  1  0  0  0
 38 89  1  0  0  0
 38 90  1  0  0  0
 39 90  1  0  0  0
 39 40  1  0  0  0
 39 43  1  0  0  0
 40 41  1  0  0  0
 40 92  1  0  0  0
 41 42  1  0  0  0
 41 91  1  0  0  0
 42 77  1  0  0  0
 42 38  1  0  0  0
 43 94  1  0  0  0
 45 21  1  0  0  0
 46 78  1  0  0  0
 47 48  1  0  0  0
 49 95  1  0  0  0
 49 13  1  0  0  0
 50  8  1  0  0  0
 52 53  1  0  0  0
 53 54  1  0  0  0
 55 59  1  0  0  0
 56 55  1  0  0  0
 56 79  1  0  0  0
 56 58  1  0  0  0
 58 99  1  0  0  0
 60 61  1  0  0  0
 60106  1  0  0  0
 62100  1  0  0  0
 62 54  1  0  0  0
 63100  1  0  0  0
 63 64  1  0  0  0
 63101  1  0  0  0
 64 65  1  0  0  0
 64105  1  0  0  0
 65 66  1  0  0  0
 65104  1  0  0  0
 66 67  1  0  0  0
 66103  1  0  0  0
 67101  1  0  0  0
 67 68  1  0  0  0
 68102  1  0  0  0
 69 70  1  0  0  0
 69107  1  0  0  0
 71 51  1  0  0  0
 72  2  1  0  0  0
 73  4  1  0  0  0
 74  6  1  0  0  0
 79 57  1  0  0  0
  2 80  2  0  0  0
  4 81  2  0  0  0
  6 82  2  0  0  0
  8  9  2  0  0  0
 10 11  2  0  0  0
 12 50  2  0  0  0
 13 14  2  0  0  0
 15 47  2  0  0  0
 17 84  2  0  0  0
 19 85  2  0  0  0
 21 22  2  0  0  0
 23 24  2  0  0  0
 25 26  2  0  0  0
 27 35  2  0  0  0
 28 29  2  0  0  0
 30 31  2  0  0  0
 33 34  2  0  0  0
 36 37  2  0  0  0
 43 93  2  0  0  0
 44 45  2  0  0  0
 48 49  2  0  0  0
 51 52  2  0  0  0
 53 69  2  0  0  0
 54 55  2  0  0  0
 57 97  2  0  0  0
 58 98  2  0  0  0
 59 60  2  0  0  0
 61 62  2  0  0  0
 70 71  2  0  0  0
M  END
> <rmsd>
0.900937915

$$$$
CHEMBL2368697 PubChem-73349948


 89100  0  0  0  0  0  0  0  0999 V2000
   -3.6422    0.6526  -17.1594 N   0  0  0  0  0
   -2.1881    1.7818  -18.5131 N   0  0  0  0  0
   -2.8114    1.5264  -15.0644 N   0  0  0  0  0
   -0.9954    3.0461  -15.2986 N   0  0  0  0  0
   -0.1140    3.6599  -17.4726 N   0  0  0  0  0
   -3.6851    0.1619  -19.5602 N   0  0  0  0  0
   -5.7722   -6.9111  -20.5002 N   0  0  0  0  0
   -7.4401   -5.8045  -21.5955 N   0  0  0  0  0
   -6.8843   -7.0443  -18.3539 N   0  0  0  0  0
   -9.0429   -6.0412  -18.3214 N   0  0  0  0  0
   -9.9961   -4.9780  -20.2807 N   0  0  0  0  0
   -5.4229   -6.3666  -22.8598 N   0  0  0  0  0
   -6.1587  -13.7954  -16.3296 N   0  0  0  0  0
   -4.4268  -14.7652  -17.4615 N   0  0  0  0  0
   -7.9300  -14.7138  -17.7093 N   0  0  0  0  0
   -7.1664  -16.1283  -19.4648 N   0  0  0  0  0
   -4.8057  -16.5569  -19.8219 N   0  0  0  0  0
   -3.8816  -13.3274  -15.5639 N   0  0  0  0  0
   -6.3122    7.3301  -16.2470 N   0  0  0  0  0
   -5.5544    8.5320  -14.4615 N   0  0  0  0  0
   -4.5387    5.6848  -16.2538 N   0  0  0  0  0
   -2.9075    6.0126  -14.5530 N   0  0  0  0  0
   -3.0590    7.8383  -12.9676 N   0  0  0  0  0
   -7.6121    9.2828  -15.5497 N   0  0  0  0  0
   -3.2008    0.8766  -18.4260 C   0  0  0  0  0
   -2.0029    2.1202  -17.2226 C   0  0  0  0  0
   -2.8573    1.4426  -16.4173 C   0  0  0  0  0
   -1.8686    2.3458  -14.5051 C   0  0  0  0  0
   -1.0389    2.9461  -16.6602 C   0  0  0  0  0
   -4.5616   -0.3704  -16.6672 C   0  0  0  0  0
   -5.8703   -0.3487  -17.4193 C   0  0  0  0  0
   -6.3100   -1.7890  -17.3513 C   0  0  0  0  0
   -5.0083   -2.5360  -17.1617 C   0  0  0  0  0
   -4.6317   -3.2454  -18.4485 C   0  0  0  0  0
   -3.7351   -6.8006  -19.1600 C   0  0  0  0  0
   -4.4927   -7.5584  -20.2345 C   0  0  0  0  0
   -6.2010   -6.3667  -21.6654 C   0  0  0  0  0
   -7.7787   -6.0275  -20.3115 C   0  0  0  0  0
   -6.7909   -6.6881  -19.6592 C   0  0  0  0  0
   -8.0295   -6.7135  -17.6841 C   0  0  0  0  0
   -8.9404   -5.6835  -19.6339 C   0  0  0  0  0
   -3.7840   -9.1524  -18.8000 C   0  0  0  0  0
   -3.3955   -7.8521  -18.1339 C   0  0  0  0  0
   -4.4020  -10.1041  -17.7881 C   0  0  0  0  0
   -7.0872  -11.5680  -15.9826 C   0  0  0  0  0
   -6.8778  -12.9445  -15.3835 C   0  0  0  0  0
   -4.8151  -13.9599  -16.4337 C   0  0  0  0  0
   -5.6079  -15.1160  -18.0067 C   0  0  0  0  0
   -6.6347  -14.5326  -17.3451 C   0  0  0  0  0
   -8.1922  -15.5232  -18.7821 C   0  0  0  0  0
   -5.8639  -15.9349  -19.0976 C   0  0  0  0  0
   -9.1121  -12.5541  -15.3222 C   0  0  0  0  0
   -8.5481  -11.5814  -16.3291 C   0  0  0  0  0
  -10.3623  -13.2283  -15.8651 C   0  0  0  0  0
   -6.9804    3.4502  -18.0549 C   0  0  0  0  0
   -7.3396    4.8910  -18.3659 C   0  0  0  0  0
   -7.1425    6.9133  -17.3726 C   0  0  0  0  0
   -6.5099    8.3891  -15.4208 C   0  0  0  0  0
   -4.7345    7.4944  -14.7220 C   0  0  0  0  0
   -5.1844    6.7793  -15.7811 C   0  0  0  0  0
   -3.3850    5.3044  -15.6265 C   0  0  0  0  0
   -3.5647    7.1118  -14.0805 C   0  0  0  0  0
   -6.3636    7.0097  -18.6709 C   0  0  0  0  0
   -6.1985    5.5689  -19.0751 C   0  0  0  0  0
   -3.9797   -1.6426  -16.7908 O   0  0  0  0  0
   -3.5065   -4.0466  -18.2302 O   0  0  0  0  0
   -3.9403   -4.2733  -20.8592 O   0  0  0  0  0
   -2.5932   -6.2017  -19.7116 O   0  0  0  0  0
   -4.7019   -8.8910  -19.8315 O   0  0  0  0  0
   -2.0335   -7.8584  -17.8106 O   0  0  0  0  0
   -5.6011   -9.5784  -17.2943 O   0  0  0  0  0
   -4.2293  -10.2590  -15.0984 O   0  0  0  0  0
   -6.8211  -10.6068  -14.9971 O   0  0  0  0  0
   -8.1243  -13.5204  -15.0494 O   0  0  0  0  0
   -9.1310  -10.3177  -16.1838 O   0  0  0  0  0
  -11.4153  -12.3131  -15.9059 O   0  0  0  0  0
   -5.6879   -8.1051  -14.9679 O   0  0  0  0  0
   -1.5145   -3.7001  -20.1059 O   0  0  0  0  0
   -7.1240   -2.0161  -16.2372 O   0  0  0  0  0
   -6.7709    0.5239  -16.7932 O   0  0  0  0  0
   -9.0971    0.3473  -17.9703 O   0  0  0  0  0
   -8.1379    2.7579  -17.6944 O   0  0  0  0  0
   -7.5988    5.5911  -17.1747 O   0  0  0  0  0
   -6.3008    5.3922  -20.4557 O   0  0  0  0  0
   -7.1283    7.7111  -19.6062 O   0  0  0  0  0
   -7.1197    0.9671  -19.5522 O   0  0  0  0  0
   -2.9356   -4.5412  -19.7611 P   0  0  0  0  0
   -5.5332   -9.6688  -15.5910 P   0  0  0  0  0
   -7.8020    1.1259  -18.0067 P   0  0  0  0  0
  1 25  1  0  0  0
  7 37  1  0  0  0
 13 47  1  0  0  0
 19 58  1  0  0  0
 25  6  1  0  0  0
 26  2  1  0  0  0
 27  3  1  0  0  0
 27  1  1  0  0  0
 28  4  1  0  0  0
 29  5  1  0  0  0
 29 26  1  0  0  0
 30  1  1  0  0  0
 30 31  1  0  0  0
 30 65  1  0  0  0
 31 32  1  0  0  0
 31 80  1  0  0  0
 32 33  1  0  0  0
 32 79  1  0  0  0
 33 65  1  0  0  0
 33 34  1  0  0  0
 34 66  1  0  0  0
 35 68  1  0  0  0
 35 36  1  0  0  0
 36  7  1  0  0  0
 36 69  1  0  0  0
 37 12  1  0  0  0
 38  8  1  0  0  0
 39  9  1  0  0  0
 39  7  1  0  0  0
 40 10  1  0  0  0
 41 11  1  0  0  0
 41 38  1  0  0  0
 42 69  1  0  0  0
 42 43  1  0  0  0
 42 44  1  0  0  0
 43 70  1  0  0  0
 43 35  1  0  0  0
 44 71  1  0  0  0
 45 73  1  0  0  0
 45 46  1  0  0  0
 46 13  1  0  0  0
 46 74  1  0  0  0
 47 18  1  0  0  0
 48 14  1  0  0  0
 49 15  1  0  0  0
 49 13  1  0  0  0
 50 16  1  0  0  0
 51 17  1  0  0  0
 51 48  1  0  0  0
 52 74  1  0  0  0
 52 53  1  0  0  0
 52 54  1  0  0  0
 53 75  1  0  0  0
 53 45  1  0  0  0
 54 76  1  0  0  0
 55 82  1  0  0  0
 56 55  1  0  0  0
 56 83  1  0  0  0
 57 83  1  0  0  0
 57 19  1  0  0  0
 57 63  1  0  0  0
 58 24  1  0  0  0
 59 20  1  0  0  0
 60 21  1  0  0  0
 60 19  1  0  0  0
 61 22  1  0  0  0
 62 23  1  0  0  0
 62 59  1  0  0  0
 63 64  1  0  0  0
 63 85  1  0  0  0
 64 84  1  0  0  0
 64 56  1  0  0  0
 87 66  1  0  0  0
 87 68  1  0  0  0
 87 78  1  0  0  0
 88 71  1  0  0  0
 88 73  1  0  0  0
 88 77  1  0  0  0
 89 80  1  0  0  0
 89 82  1  0  0  0
 89 86  1  0  0  0
 25  2  2  0  0  0
 26 27  2  0  0  0
 28  3  2  0  0  0
 29  4  2  0  0  0
 37  8  2  0  0  0
 38 39  2  0  0  0
 40  9  2  0  0  0
 41 10  2  0  0  0
 47 14  2  0  0  0
 48 49  2  0  0  0
 50 15  2  0  0  0
 51 16  2  0  0  0
 58 20  2  0  0  0
 59 60  2  0  0  0
 61 21  2  0  0  0
 62 22  2  0  0  0
 87 67  2  0  0  0
 88 72  2  0  0  0
 89 81  2  0  0  0
M  END
> <rmsd>
0.747808158

$$$$
CHEMBL2058766 PubChem-56950658


 90101  0  0  0  0  0  0  0  0999 V2000
   -6.2482    2.2638  -20.6906 C   0  0  0  0  0
   -6.1186    3.7547  -20.3751 C   0  0  0  0  0
   -4.8206    4.1763  -19.7089 C   0  0  0  0  0
   -5.2223    5.4472  -19.0136 C   0  0  0  0  0
   -6.7425    5.4478  -19.0889 C   0  0  0  0  0
   -8.6129    6.2490  -17.6259 C   0  0  0  0  0
   -7.8975    5.8413  -15.6676 C   0  0  0  0  0
   -7.6898    5.6728  -14.3078 C   0  0  0  0  0
   -5.5650    4.7177  -14.8219 C   0  0  0  0  0
   -6.9493    5.4553  -16.5505 C   0  0  0  0  0
   -7.7020    1.1975  -19.3945 C   0  0  0  0  0
   -6.7302   -1.5667  -19.5661 C   0  0  0  0  0
   -7.1262   -2.5336  -20.6458 C   0  0  0  0  0
   -6.3831   -3.7827  -20.2466 C   0  0  0  0  0
   -6.1063   -4.6730  -21.4520 C   0  0  0  0  0
   -5.7008   -7.5228  -22.9051 C   0  0  0  0  0
   -5.4214   -7.6784  -24.3751 C   0  0  0  0  0
   -4.9536   -9.1090  -24.4720 C   0  0  0  0  0
   -3.9986   -9.2980  -25.6417 C   0  0  0  0  0
   -1.7467  -11.3983  -25.0608 C   0  0  0  0  0
   -1.5082  -11.6587  -23.6073 C   0  0  0  0  0
   -0.6733  -12.9177  -23.5941 C   0  0  0  0  0
    0.7722  -12.5702  -23.2865 C   0  0  0  0  0
   -1.5350  -12.7542  -25.6973 C   0  0  0  0  0
   -3.7309  -12.9550  -26.9032 C   0  0  0  0  0
   -4.5600  -14.7287  -26.0805 C   0  0  0  0  0
   -5.3160  -15.8352  -25.7183 C   0  0  0  0  0
   -3.6000  -16.4144  -24.1680 C   0  0  0  0  0
   -3.3651  -14.5073  -25.4933 C   0  0  0  0  0
   -4.7953   -8.5675  -22.2787 C   0  0  0  0  0
   -2.6657   -7.2026  -22.1865 C   0  0  0  0  0
   -2.2411   -7.2289  -20.1050 C   0  0  0  0  0
   -1.7432   -7.0855  -18.8185 C   0  0  0  0  0
   -3.5923   -8.3703  -18.0328 C   0  0  0  0  0
   -3.3746   -7.9309  -20.3131 C   0  0  0  0  0
   -5.3921   -2.1110  -19.0992 C   0  0  0  0  0
   -3.8846   -0.9354  -20.7592 C   0  0  0  0  0
   -2.7236    0.2923  -19.4743 C   0  0  0  0  0
   -1.8695    1.2090  -18.8779 C   0  0  0  0  0
   -2.8232    0.6201  -16.7715 C   0  0  0  0  0
   -3.5789   -0.4250  -18.7137 C   0  0  0  0  0
   -4.4222    3.2500  -18.7404 O   0  0  0  0  0
   -4.7238    6.5456  -19.7192 O   0  0  0  0  0
   -7.1859    4.2169  -19.5954 O   0  0  0  0  0
   -6.3470    1.5007  -19.5246 O   0  0  0  0  0
   -9.3517    0.1192  -17.5469 O   0  0  0  0  0
   -6.8828    0.4167  -16.7718 O   0  0  0  0  0
   -7.6385   -1.6042  -18.4989 O   0  0  0  0  0
   -7.3083   -5.1303  -22.0071 O   0  0  0  0  0
   -9.0156   -6.9284  -21.1971 O   0  0  0  0  0
   -6.7127   -6.9959  -19.9903 O   0  0  0  0  0
   -7.0317   -7.8427  -22.6102 O   0  0  0  0  0
   -2.8127   -8.5856  -25.4290 O   0  0  0  0  0
   -2.2204   -9.9184  -27.6601 O   0  0  0  0  0
   -0.5165   -8.1210  -26.8670 O   0  0  0  0  0
   -0.7811  -10.5052  -25.5365 O   0  0  0  0  0
    1.4448  -13.7029  -22.8294 O   0  0  0  0  0
    3.7180  -12.5850  -23.5453 O   0  0  0  0  0
    3.7165  -15.1880  -23.3070 O   0  0  0  0  0
    2.4505  -13.9323  -25.4079 O   0  0  0  0  0
   -0.7507  -13.5607  -24.8474 O   0  0  0  0  0
   -2.7254  -11.9130  -22.9775 O   0  0  0  0  0
   -4.3297   -9.4656  -23.2627 O   0  0  0  0  0
   -6.5695   -7.4813  -25.1487 O   0  0  0  0  0
   -5.1736   -3.3959  -19.6447 O   0  0  0  0  0
   -8.5047   -2.7624  -20.6604 O   0  0  0  0  0
   -7.3751    5.7151  -17.7983 N   0  0  0  0  0
   -8.9671    6.3495  -16.3132 N   0  0  0  0  0
   -8.6664    6.0694  -13.3510 N   0  0  0  0  0
   -6.5086    5.1136  -13.9078 N   0  0  0  0  0
   -5.7806    4.8860  -16.1636 N   0  0  0  0  0
   -2.8221  -13.3853  -25.9914 N   0  0  0  0  0
   -4.8255  -13.7643  -26.9792 N   0  0  0  0  0
   -6.5743  -16.1083  -26.3294 N   0  0  0  0  0
   -4.8119  -16.6672  -24.7593 N   0  0  0  0  0
   -2.8622  -15.3215  -24.5332 N   0  0  0  0  0
   -3.6663   -7.9253  -21.6166 N   0  0  0  0  0
   -1.7610   -6.7514  -21.2695 N   0  0  0  0  0
   -0.5452   -6.3593  -18.5617 N   0  0  0  0  0
   -2.4384   -7.6656  -17.7963 N   0  0  0  0  0
   -4.0721   -8.5099  -19.3070 N   0  0  0  0  0
   -4.3214   -1.2061  -19.5014 N   0  0  0  0  0
   -2.8857   -0.0061  -20.7765 N   0  0  0  0  0
   -0.9595    1.9883  -19.6466 N   0  0  0  0  0
   -1.9389    1.3557  -17.5223 N   0  0  0  0  0
   -3.6606   -0.2830  -17.3682 N   0  0  0  0  0
   -7.9265    0.0080  -18.0362 P   0  0  0  0  0
   -7.5391   -6.7201  -21.4438 P   0  0  0  0  0
   -1.6228   -9.3140  -26.4057 P   0  0  0  0  0
    2.8545  -13.8071  -23.7675 P   0  0  0  0  0
  1 45  1  0  0  0
  2  1  1  0  0  0
  2  3  1  0  0  0
  2 44  1  0  0  0
  3 42  1  0  0  0
  3  4  1  0  0  0
  4 43  1  0  0  0
  4  5  1  0  0  0
  5 44  1  0  0  0
  5 67  1  0  0  0
  7 68  1  0  0  0
  8 69  1  0  0  0
  8 70  1  0  0  0
  9 71  1  0  0  0
 10 67  1  0  0  0
 10  7  1  0  0  0
 11 45  1  0  0  0
 11 87  1  0  0  0
 12 48  1  0  0  0
 12 13  1  0  0  0
 13 14  1  0  0  0
 13 66  1  0  0  0
 14 15  1  0  0  0
 14 65  1  0  0  0
 15 49  1  0  0  0
 16 52  1  0  0  0
 16 17  1  0  0  0
 17 18  1  0  0  0
 17 64  1  0  0  0
 18 19  1  0  0  0
 18 63  1  0  0  0
 19 53  1  0  0  0
 20 56  1  0  0  0
 20 21  1  0  0  0
 21 22  1  0  0  0
 21 62  1  0  0  0
 22 23  1  0  0  0
 22 61  1  0  0  0
 23 57  1  0  0  0
 24 61  1  0  0  0
 24 72  1  0  0  0
 24 20  1  0  0  0
 26 73  1  0  0  0
 27 74  1  0  0  0
 27 75  1  0  0  0
 28 76  1  0  0  0
 29 72  1  0  0  0
 29 26  1  0  0  0
 30 63  1  0  0  0
 30 77  1  0  0  0
 30 16  1  0  0  0
 32 78  1  0  0  0
 33 79  1  0  0  0
 33 80  1  0  0  0
 34 81  1  0  0  0
 35 77  1  0  0  0
 35 32  1  0  0  0
 36 65  1  0  0  0
 36 82  1  0  0  0
 36 12  1  0  0  0
 38 83  1  0  0  0
 39 84  1  0  0  0
 39 85  1  0  0  0
 40 86  1  0  0  0
 41 82  1  0  0  0
 41 38  1  0  0  0
 67  6  1  0  0  0
 72 25  1  0  0  0
 77 31  1  0  0  0
 82 37  1  0  0  0
 87 47  1  0  0  0
 87 48  1  0  0  0
 88 49  1  0  0  0
 88 51  1  0  0  0
 88 52  1  0  0  0
 89 53  1  0  0  0
 89 55  1  0  0  0
 89 56  1  0  0  0
 90 57  1  0  0  0
 90 59  1  0  0  0
 90 60  1  0  0  0
  6 68  2  0  0  0
  7  8  2  0  0  0
  9 70  2  0  0  0
 10 71  2  0  0  0
 25 73  2  0  0  0
 26 27  2  0  0  0
 28 75  2  0  0  0
 29 76  2  0  0  0
 31 78  2  0  0  0
 32 33  2  0  0  0
 34 80  2  0  0  0
 35 81  2  0  0  0
 37 83  2  0  0  0
 38 39  2  0  0  0
 40 85  2  0  0  0
 41 86  2  0  0  0
 87 46  2  0  0  0
 88 50  2  0  0  0
 89 54  2  0  0  0
 90 58  2  0  0  0
M  END
> <rmsd>
0.742202282

$$$$
CHEMBL408350 MCULE-2945057595 MCULE-6013845467 MolPort-046-936-095 PubChem-145707736 PubChem-146013127 PubChem-158782


 99104  0  0  0  0  0  0  0  0999 V2000
  -10.4284    7.7752  -16.0089 N   0  0  0  0  0
  -12.1693    6.5916  -18.1532 N   0  0  0  0  0
  -10.2493    8.0727  -20.6864 N   0  0  0  0  0
   -7.0549    4.4475  -14.1156 N   0  0  0  0  0
   -8.5153    3.6940  -11.5575 N   0  0  0  0  0
   -9.3723    7.2325  -12.5311 N   0  0  0  0  0
  -14.6317    7.6009  -13.2140 N   0  0  0  0  0
   -5.2275    4.7024   -8.3028 N   0  0  0  0  0
   -8.0784    2.6418  -16.9727 N   0  0  0  0  0
   -6.5658   -0.2134  -18.6710 N   0  0  0  0  0
   -6.4778   -2.9853  -19.6688 N   0  0  0  0  0
   -7.9557   -5.2568  -21.3471 N   0  0  0  0  0
   -5.6587   -6.8262  -22.2363 N   0  0  0  0  0
   -4.2445   -5.7427  -19.9046 N   0  0  0  0  0
  -11.8673    8.0195  -16.0095 C   0  0  0  0  0
  -12.6293    7.0488  -16.8746 C   0  0  0  0  0
  -10.8035    6.7032  -18.6582 C   0  0  0  0  0
  -10.8126    6.8822  -20.1352 C   0  0  0  0  0
  -10.2686    8.3612  -22.1170 C   0  0  0  0  0
  -11.1861    9.5440  -22.4211 C   0  0  0  0  0
  -12.6411    9.1643  -22.2055 C   0  0  0  0  0
   -8.8602    8.6490  -22.6085 C   0  0  0  0  0
   -9.9217    5.5159  -18.2452 C   0  0  0  0  0
  -10.0225    2.8344  -15.4573 C   0  0  0  0  0
   -8.5142    3.0199  -15.6397 C   0  0  0  0  0
   -7.9428    4.3472  -15.2295 C   0  0  0  0  0
   -6.6577    3.3157  -13.2944 C   0  0  0  0  0
   -7.8008    2.8286  -12.4479 C   0  0  0  0  0
   -8.3585    5.1442  -11.5359 C   0  0  0  0  0
   -9.4503    5.8241  -12.3058 C   0  0  0  0  0
  -10.2446    7.9235  -13.4718 C   0  0  0  0  0
   -9.6254    7.9478  -14.8375 C   0  0  0  0  0
  -10.5188    9.3395  -12.9914 C   0  0  0  0  0
  -11.5600    9.3460  -11.8798 C   0  0  0  0  0
  -12.9704    9.1890  -12.4352 C   0  0  0  0  0
  -13.2758    7.7281  -12.7205 C   0  0  0  0  0
   -8.3200    5.6387  -10.0995 C   0  0  0  0  0
   -6.9443    5.4712   -9.5438 C   0  0  0  0  0
   -6.5673    4.6200   -8.5110 C   0  0  0  0  0
   -4.7789    5.5939   -9.2050 C   0  0  0  0  0
   -5.7951    6.0867   -9.9742 C   0  0  0  0  0
   -5.5761    7.0172  -10.9890 C   0  0  0  0  0
   -4.2539    7.4433  -11.2023 C   0  0  0  0  0
   -3.2009    6.9376  -10.4101 C   0  0  0  0  0
   -3.4590    5.9980   -9.3945 C   0  0  0  0  0
   -5.4645    3.7047  -12.4322 C   0  0  0  0  0
   -4.7285    2.4976  -11.9623 C   0  0  0  0  0
   -4.6946    2.1970  -10.5975 C   0  0  0  0  0
   -4.0050    1.0684  -10.1457 C   0  0  0  0  0
   -3.3432    0.2424  -11.0602 C   0  0  0  0  0
   -3.3689    0.5486  -12.4256 C   0  0  0  0  0
   -4.0575    1.6765  -12.8778 C   0  0  0  0  0
   -7.1227    1.6001  -17.1532 C   0  0  0  0  0
   -6.6910    1.2321  -18.5369 C   0  0  0  0  0
   -7.7068   -1.0507  -18.8722 C   0  0  0  0  0
   -7.5666   -2.5344  -18.8089 C   0  0  0  0  0
   -6.9109   -3.0420  -21.0750 C   0  0  0  0  0
   -8.2105   -3.8238  -21.3040 C   0  0  0  0  0
   -9.2000   -5.9027  -20.9561 C   0  0  0  0  0
   -9.0276   -6.7282  -19.7194 C   0  0  0  0  0
   -7.7356   -5.6128  -22.7426 C   0  0  0  0  0
   -6.2430   -5.7518  -23.0350 C   0  0  0  0  0
   -5.8687   -8.0643  -22.9774 C   0  0  0  0  0
   -6.5179   -9.1123  -22.1276 C   0  0  0  0  0
   -4.2149   -6.6227  -22.1978 C   0  0  0  0  0
   -3.8344   -5.4666  -21.2749 C   0  0  0  0  0
   -3.0719   -6.2316  -19.1916 C   0  0  0  0  0
   -3.1876   -7.6975  -18.8944 C   0  0  0  0  0
   -4.5757   -4.4568  -19.3208 C   0  0  0  0  0
   -6.0808   -4.3135  -19.2263 C   0  0  0  0  0
   -5.4107    1.9525  -18.9681 C   0  0  0  0  0
   -4.1896    1.5469  -18.2003 C   0  0  0  0  0
   -3.2777    0.6504  -18.7689 C   0  0  0  0  0
   -2.1210    0.2899  -18.0712 C   0  0  0  0  0
   -1.8686    0.8306  -16.8074 C   0  0  0  0  0
   -2.7734    1.7363  -16.2420 C   0  0  0  0  0
   -3.9295    2.0991  -16.9405 C   0  0  0  0  0
  -12.1681    9.4843  -16.3370 C   0  0  0  0  0
  -11.8061    9.8442  -17.7685 C   0  0  0  0  0
  -13.7657    6.6720  -16.4797 O   0  0  0  0  0
  -11.3275    6.0070  -20.8839 O   0  0  0  0  0
  -10.8640   10.6444  -21.6250 O   0  0  0  0  0
   -8.0916    7.4864  -22.5606 O   0  0  0  0  0
   -8.1996    5.3794  -15.8982 O   0  0  0  0  0
   -8.1269    1.6157  -12.5132 O   0  0  0  0  0
  -10.4171    5.1605  -12.7762 O   0  0  0  0  0
   -8.3823    8.1196  -14.9639 O   0  0  0  0  0
   -2.6607   -0.8801  -10.6140 O   0  0  0  0  0
   -6.6424    0.9963  -16.1530 O   0  0  0  0  0
   -8.8401   -0.5466  -19.0783 O   0  0  0  0  0
   -7.9209   -6.7753  -19.1167 O   0  0  0  0  0
  -10.1064   -7.4513  -19.2282 O   0  0  0  0  0
   -6.7984   -8.8875  -20.9210 O   0  0  0  0  0
   -6.8305  -10.3443  -22.6859 O   0  0  0  0  0
   -4.2041   -8.3563  -19.2453 O   0  0  0  0  0
   -2.1560   -8.3375  -18.2206 O   0  0  0  0  0
  -13.5144    9.7718  -16.1054 O   0  0  0  0  0
  -10.8222    3.9367  -18.0798 S   0  0  0  0  0
  -11.0753    4.2296  -15.9802 S   0  0  0  0  0
  8 40  1  0  0  0
  9 53  1  0  0  0
 10 55  1  0  0  0
 15  1  1  0  0  0
 15 16  1  0  0  0
 15 78  1  0  0  0
 16  2  1  0  0  0
 17  2  1  0  0  0
 17 18  1  0  0  0
 17 23  1  0  0  0
 18  3  1  0  0  0
 19  3  1  0  0  0
 19 20  1  0  0  0
 19 22  1  0  0  0
 20 82  1  0  0  0
 20 21  1  0  0  0
 22 83  1  0  0  0
 23 98  1  0  0  0
 24 99  1  0  0  0
 24 25  1  0  0  0
 25 26  1  0  0  0
 25  9  1  0  0  0
 26  4  1  0  0  0
 27  4  1  0  0  0
 27 28  1  0  0  0
 27 46  1  0  0  0
 28  5  1  0  0  0
 29  5  1  0  0  0
 29 30  1  0  0  0
 29 37  1  0  0  0
 30  6  1  0  0  0
 31  6  1  0  0  0
 31 32  1  0  0  0
 31 33  1  0  0  0
 32  1  1  0  0  0
 33 34  1  0  0  0
 34 35  1  0  0  0
 35 36  1  0  0  0
 36  7  1  0  0  0
 37 38  1  0  0  0
 39  8  1  0  0  0
 41 42  1  0  0  0
 41 38  1  0  0  0
 43 44  1  0  0  0
 45 40  1  0  0  0
 46 47  1  0  0  0
 48 49  1  0  0  0
 50 51  1  0  0  0
 50 88  1  0  0  0
 52 47  1  0  0  0
 54 53  1  0  0  0
 54 10  1  0  0  0
 54 71  1  0  0  0
 56 55  1  0  0  0
 56 11  1  0  0  0
 57 11  1  0  0  0
 57 58  1  0  0  0
 58 12  1  0  0  0
 59 12  1  0  0  0
 59 60  1  0  0  0
 60 92  1  0  0  0
 61 12  1  0  0  0
 61 62  1  0  0  0
 62 13  1  0  0  0
 63 13  1  0  0  0
 63 64  1  0  0  0
 64 94  1  0  0  0
 65 13  1  0  0  0
 65 66  1  0  0  0
 66 14  1  0  0  0
 67 14  1  0  0  0
 67 68  1  0  0  0
 68 96  1  0  0  0
 69 14  1  0  0  0
 69 70  1  0  0  0
 70 11  1  0  0  0
 71 72  1  0  0  0
 73 74  1  0  0  0
 75 76  1  0  0  0
 77 72  1  0  0  0
 78 97  1  0  0  0
 78 79  1  0  0  0
 98 99  1  0  0  0
 16 80  2  0  0  0
 18 81  2  0  0  0
 26 84  2  0  0  0
 28 85  2  0  0  0
 30 86  2  0  0  0
 32 87  2  0  0  0
 38 39  2  0  0  0
 40 41  2  0  0  0
 42 43  2  0  0  0
 44 45  2  0  0  0
 47 48  2  0  0  0
 49 50  2  0  0  0
 51 52  2  0  0  0
 53 89  2  0  0  0
 55 90  2  0  0  0
 60 91  2  0  0  0
 64 93  2  0  0  0
 68 95  2  0  0  0
 72 73  2  0  0  0
 74 75  2  0  0  0
 76 77  2  0  0  0
M  END
> <rmsd>
0.817168534

$$$$
CHEMBL398967 PubChem-44444798


 72 75  0  0  0  0  0  0  0  0999 V2000
  -10.8980  -13.1497  -18.9730 C   0  0  0  0  0
  -10.7746  -11.6647  -19.2302 C   0  0  0  0  0
  -11.2994  -11.3630  -20.6248 C   0  0  0  0  0
   -9.3145  -11.2614  -19.1166 C   0  0  0  0  0
   -9.1810   -9.8002  -18.7125 C   0  0  0  0  0
  -10.3148   -7.8077  -19.7470 C   0  0  0  0  0
  -10.7984   -7.1076  -20.9766 C   0  0  0  0  0
  -11.3576   -8.1121  -21.9725 C   0  0  0  0  0
  -10.2832   -8.2814  -23.0355 C   0  0  0  0  0
   -9.4340   -7.0281  -22.9659 C   0  0  0  0  0
   -9.1750   -5.1631  -21.2907 C   0  0  0  0  0
   -9.5648   -4.5207  -19.9841 C   0  0  0  0  0
  -10.7770   -3.6130  -20.1435 C   0  0  0  0  0
  -12.0408   -4.3514  -19.7465 C   0  0  0  0  0
  -13.2185   -3.4572  -19.9031 C   0  0  0  0  0
   -7.8967   -2.5679  -19.8295 C   0  0  0  0  0
   -6.7691   -1.9401  -19.0725 C   0  0  0  0  0
   -6.9855   -0.4361  -18.9106 C   0  0  0  0  0
   -7.8752   -0.1439  -17.7450 C   0  0  0  0  0
   -4.2497   -2.2162  -19.1130 C   0  0  0  0  0
   -4.1599   -2.1229  -17.6149 C   0  0  0  0  0
   -4.1186   -0.6783  -17.1076 C   0  0  0  0  0
   -2.9767    0.1227  -17.6474 C   0  0  0  0  0
   -3.2404    1.2136  -18.4819 C   0  0  0  0  0
   -2.1878    1.9920  -18.9746 C   0  0  0  0  0
   -0.8708    1.6836  -18.6276 C   0  0  0  0  0
   -0.6029    0.5990  -17.7867 C   0  0  0  0  0
   -1.6554   -0.1793  -17.2936 C   0  0  0  0  0
   -3.1351   -4.2762  -16.7625 C   0  0  0  0  0
   -1.9226   -5.0477  -16.3573 C   0  0  0  0  0
   -0.9136   -4.1698  -15.6267 C   0  0  0  0  0
    0.1563   -5.0196  -14.9510 C   0  0  0  0  0
    1.3596   -5.1662  -15.8230 C   0  0  0  0  0
   -0.8474   -7.7321  -18.7306 C   0  0  0  0  0
   -0.9604   -9.0609  -18.3676 C   0  0  0  0  0
   -0.7793  -10.2366  -19.2695 C   0  0  0  0  0
   -1.9921  -10.4069  -20.1772 C   0  0  0  0  0
   -1.7837  -11.5659  -21.0957 C   0  0  0  0  0
   -4.2541   -9.6733  -19.3204 C   0  0  0  0  0
   -5.3258   -9.7674  -18.2729 C   0  0  0  0  0
   -5.1169  -10.8938  -17.2494 C   0  0  0  0  0
   -5.3345  -12.2820  -17.7796 C   0  0  0  0  0
   -7.8324   -9.5350  -18.1296 C   0  0  0  0  0
   -9.4265   -8.9254  -19.8489 N   0  0  0  0  0
   -9.7109   -6.4385  -21.6698 N   0  0  0  0  0
   -8.4466   -3.8070  -19.3617 N   0  0  0  0  0
   -5.5166   -2.1761  -19.7763 N   0  0  0  0  0
   -3.0318   -2.8906  -17.1050 N   0  0  0  0  0
    2.1431   -4.0247  -16.1660 N   0  0  0  0  0
   -1.3222   -5.6674  -17.5266 N   0  0  0  0  0
   -1.2361   -7.0621  -17.6358 N   0  0  0  0  0
   -1.4221   -9.1512  -17.1017 N   0  0  0  0  0
   -1.5753   -7.9082  -16.6773 N   0  0  0  0  0
   -1.6402  -11.3393  -22.4950 N   0  0  0  0  0
   -3.1899  -10.6232  -19.3762 N   0  0  0  0  0
   -6.6516   -9.8309  -18.8769 N   0  0  0  0  0
  -10.7265   -7.4242  -18.6192 O   0  0  0  0  0
   -8.4269   -4.5402  -22.0980 O   0  0  0  0  0
  -14.1364   -3.7595  -20.7112 O   0  0  0  0  0
  -13.3111   -2.2875  -19.1598 O   0  0  0  0  0
   -8.3414   -2.0189  -20.8761 O   0  0  0  0  0
   -7.4344    0.5346  -16.7755 O   0  0  0  0  0
   -9.1905   -0.5923  -17.7328 O   0  0  0  0  0
   -3.1988   -2.3155  -19.8013 O   0  0  0  0  0
    0.1721    2.4601  -19.1141 O   0  0  0  0  0
   -4.2435   -4.8743  -16.8561 O   0  0  0  0  0
    1.7001   -6.3058  -16.2342 O   0  0  0  0  0
   -1.7284  -12.7407  -20.6434 O   0  0  0  0  0
   -4.2736   -8.7049  -20.1254 O   0  0  0  0  0
   -5.2658  -13.2519  -16.9850 O   0  0  0  0  0
   -5.6162  -12.5109  -19.1221 O   0  0  0  0  0
   -7.7460   -9.0458  -16.9715 O   0  0  0  0  0
  1  2  1  0  0  0
  2  3  1  0  0  0
  2  4  1  0  0  0
  5  4  1  0  0  0
  5 44  1  0  0  0
  5 43  1  0  0  0
  7  6  1  0  0  0
  7  8  1  0  0  0
  7 45  1  0  0  0
  8  9  1  0  0  0
  9 10  1  0  0  0
 10 45  1  0  0  0
 12 11  1  0  0  0
 12 13  1  0  0  0
 12 46  1  0  0  0
 13 14  1  0  0  0
 14 15  1  0  0  0
 15 60  1  0  0  0
 17 16  1  0  0  0
 17 18  1  0  0  0
 17 47  1  0  0  0
 18 19  1  0  0  0
 19 63  1  0  0  0
 21 20  1  0  0  0
 21 22  1  0  0  0
 21 48  1  0  0  0
 22 23  1  0  0  0
 24 25  1  0  0  0
 26 65  1  0  0  0
 26 27  1  0  0  0
 28 23  1  0  0  0
 30 29  1  0  0  0
 30 31  1  0  0  0
 30 50  1  0  0  0
 31 32  1  0  0  0
 32 33  1  0  0  0
 33 49  1  0  0  0
 35 52  1  0  0  0
 36 35  1  0  0  0
 36 37  1  0  0  0
 37 38  1  0  0  0
 37 55  1  0  0  0
 38 54  1  0  0  0
 40 39  1  0  0  0
 40 41  1  0  0  0
 40 56  1  0  0  0
 41 42  1  0  0  0
 42 71  1  0  0  0
 44  6  1  0  0  0
 45 11  1  0  0  0
 46 16  1  0  0  0
 47 20  1  0  0  0
 48 29  1  0  0  0
 50 51  1  0  0  0
 51 34  1  0  0  0
 51 53  1  0  0  0
 55 39  1  0  0  0
 56 43  1  0  0  0
  6 57  2  0  0  0
 11 58  2  0  0  0
 15 59  2  0  0  0
 16 61  2  0  0  0
 19 62  2  0  0  0
 20 64  2  0  0  0
 23 24  2  0  0  0
 25 26  2  0  0  0
 27 28  2  0  0  0
 29 66  2  0  0  0
 33 67  2  0  0  0
 34 35  2  0  0  0
 38 68  2  0  0  0
 39 69  2  0  0  0
 42 70  2  0  0  0
 43 72  2  0  0  0
 52 53  2  0  0  0
M  END
> <rmsd>
0.771170735

$$$$
CHEMBL3672871 PubChem-157651654 PubChem-159379304 PubChem-159740881 PubChem-161590571 PubChem-72700148


 41 42  0  0  0  0  0  0  0  0999 V2000
   -0.9869   -1.5459  -19.6080 C   0  0  0  0  0
   -1.2106   -1.7646  -18.1159 C   0  0  0  0  0
   -0.0545   -2.5992  -17.6013 C   0  0  0  0  0
   -1.1785   -0.4160  -17.3870 C   0  0  0  0  0
   -2.2540    0.5320  -17.8151 C   0  0  0  0  0
   -3.5591    0.5378  -17.3408 C   0  0  0  0  0
   -4.3262    1.5843  -17.8736 C   0  0  0  0  0
   -3.6090    2.3909  -18.7521 C   0  0  0  0  0
   -4.1340    3.5695  -19.4511 C   0  0  0  0  0
   -3.5867    5.5128  -20.9305 C   0  0  0  0  0
   -2.7015    6.0133  -21.8951 C   0  0  0  0  0
   -2.9584    7.2359  -22.5237 C   0  0  0  0  0
   -4.0997    7.9817  -22.1956 C   0  0  0  0  0
   -4.9842    7.4828  -21.2307 C   0  0  0  0  0
   -4.7293    6.2604  -20.6025 C   0  0  0  0  0
   -4.3670    9.2783  -22.8493 C   0  0  0  0  0
   -2.4971   -2.5102  -17.8475 C   0  0  0  0  0
   -4.5646   -3.7210  -18.8068 C   0  0  0  0  0
   -5.1012   -4.0051  -20.2206 C   0  0  0  0  0
   -6.3982   -4.8097  -20.2215 C   0  0  0  0  0
   -6.7769   -5.1614  -21.6176 C   0  0  0  0  0
   -4.2965   -5.0433  -18.0752 C   0  0  0  0  0
   -3.2234   -5.8796  -18.7555 C   0  0  0  0  0
   -3.3567   -7.3065  -18.3594 C   0  0  0  0  0
   -5.5940   -2.9292  -17.9917 C   0  0  0  0  0
   -5.9693   -1.6015  -18.6476 C   0  0  0  0  0
   -6.9853   -0.8974  -17.8196 C   0  0  0  0  0
   -2.0302    1.8229  -18.8660 S   0  0  0  0  0
   -5.3360    3.9105  -19.2771 O   0  0  0  0  0
   -3.2898    4.2861  -20.3137 O   0  0  0  0  0
   -2.8369   -2.7556  -16.6571 O   0  0  0  0  0
   -6.0472   -5.9277  -22.3003 O   0  0  0  0  0
   -7.9405   -4.6466  -22.1662 O   0  0  0  0  0
   -2.4361   -7.8727  -17.7137 O   0  0  0  0  0
   -4.4937   -8.0211  -18.7124 O   0  0  0  0  0
   -8.1320   -0.6733  -18.2858 O   0  0  0  0  0
   -6.6649   -0.4692  -16.5397 O   0  0  0  0  0
   -3.5645    9.7363  -23.7521 N   0  0  0  0  0
   -5.5078   10.0484  -22.4810 N   0  0  0  0  0
   -3.3247   -2.9516  -18.9349 N   0  0  0  0  0
   -1.5916    5.3102  -22.2321 F   0  0  0  0  0
  1  2  1  0  0  0
  2  3  1  0  0  0
  2  4  1  0  0  0
  2 17  1  0  0  0
  4  5  1  0  0  0
  5 28  1  0  0  0
  6  7  1  0  0  0
  8 28  1  0  0  0
  8  9  1  0  0  0
  9 30  1  0  0  0
 10 30  1  0  0  0
 11 12  1  0  0  0
 11 41  1  0  0  0
 13 14  1  0  0  0
 13 16  1  0  0  0
 15 10  1  0  0  0
 16 39  1  0  0  0
 17 40  1  0  0  0
 18 40  1  0  0  0
 18 19  1  0  0  0
 18 22  1  0  0  0
 18 25  1  0  0  0
 19 20  1  0  0  0
 20 21  1  0  0  0
 21 33  1  0  0  0
 22 23  1  0  0  0
 23 24  1  0  0  0
 24 35  1  0  0  0
 25 26  1  0  0  0
 26 27  1  0  0  0
 27 37  1  0  0  0
  5  6  2  0  0  0
  7  8  2  0  0  0
  9 29  2  0  0  0
 10 11  2  0  0  0
 12 13  2  0  0  0
 14 15  2  0  0  0
 16 38  2  0  0  0
 17 31  2  0  0  0
 21 32  2  0  0  0
 24 34  2  0  0  0
 27 36  2  0  0  0
M  END
> <rmsd>
0.79992044

$$$$
CHEMBL452989


 74 76  0  0  0  0  0  0  0  0999 V2000
   -3.2978    1.5437  -15.6256 N   0  0  0  0  0
   -1.2752    2.7504  -15.9788 N   0  0  0  0  0
   -4.0084    0.2465  -17.5379 N   0  0  0  0  0
   -2.3063    0.8284  -18.9125 N   0  0  0  0  0
   -6.3386   -6.0687  -19.1613 N   0  0  0  0  0
   -5.1767   -8.6013  -17.4133 N   0  0  0  0  0
   -5.6545  -11.3789  -19.7117 N   0  0  0  0  0
   -8.6823  -12.7772  -20.6376 N   0  0  0  0  0
  -11.0726  -12.4564  -22.2078 N   0  0  0  0  0
  -11.4727  -15.9382  -21.3239 N   0  0  0  0  0
  -10.8906  -19.0464  -20.8739 N   0  0  0  0  0
  -11.7528  -21.8759  -20.8436 N   0  0  0  0  0
   -7.0134  -20.9790  -21.1051 N   0  0  0  0  0
   -5.9565  -20.0532  -23.0058 N   0  0  0  0  0
   -6.9062  -22.1842  -23.2520 N   0  0  0  0  0
   -7.7468  -14.0333  -23.8023 N   0  0  0  0  0
   -0.0826    2.6605  -18.0875 N   0  0  0  0  0
   -2.3241    2.3898  -15.1688 C   0  0  0  0  0
   -1.1756    2.2827  -17.2584 C   0  0  0  0  0
   -2.1686    1.4232  -17.7117 C   0  0  0  0  0
   -3.1861    1.0784  -16.8939 C   0  0  0  0  0
   -3.4580    0.1115  -18.7732 C   0  0  0  0  0
   -5.2432   -0.3430  -17.0400 C   0  0  0  0  0
   -6.5718   -2.0106  -17.7697 C   0  0  0  0  0
   -7.1426   -0.7650  -18.4002 C   0  0  0  0  0
   -6.4405    0.3466  -17.6644 C   0  0  0  0  0
   -6.5297   -3.1410  -18.7808 C   0  0  0  0  0
   -6.3449   -6.4807  -17.7922 C   0  0  0  0  0
   -5.1473   -7.1564  -17.1992 C   0  0  0  0  0
   -5.0459   -9.2625  -18.6806 C   0  0  0  0  0
   -4.8245  -10.7381  -18.7002 C   0  0  0  0  0
   -6.6249  -12.3747  -19.3697 C   0  0  0  0  0
   -7.2943  -13.1940  -20.4339 C   0  0  0  0  0
   -9.0852  -11.5170  -21.1925 C   0  0  0  0  0
  -10.5174  -11.2807  -21.5507 C   0  0  0  0  0
  -11.6432  -13.5386  -21.4688 C   0  0  0  0  0
  -11.9231  -14.8348  -22.1609 C   0  0  0  0  0
  -10.4196  -16.8136  -21.7267 C   0  0  0  0  0
   -9.9832  -17.9029  -20.7945 C   0  0  0  0  0
  -11.0421  -19.8942  -22.0190 C   0  0  0  0  0
  -12.0206  -21.0223  -21.9867 C   0  0  0  0  0
  -13.4490  -20.5034  -21.9230 C   0  0  0  0  0
  -13.8704  -19.9670  -23.2834 C   0  0  0  0  0
  -16.2744  -20.9941  -23.5250 C   0  0  0  0  0
   -8.5350  -18.3222  -21.0260 C   0  0  0  0  0
   -8.0309  -19.1587  -19.8624 C   0  0  0  0  0
   -6.7336  -19.8405  -20.2473 C   0  0  0  0  0
   -6.5766  -21.0449  -22.4657 C   0  0  0  0  0
  -13.4071  -14.9875  -22.4909 C   0  0  0  0  0
  -13.8188  -13.9884  -23.5562 C   0  0  0  0  0
   -6.5243  -13.2326  -21.7505 C   0  0  0  0  0
   -7.0197  -14.3389  -22.6182 C   0  0  0  0  0
   -3.3593  -11.0365  -18.9718 C   0  0  0  0  0
   -3.8467   -6.5331  -17.6912 C   0  0  0  0  0
   -2.6598   -7.1037  -16.9856 C   0  0  0  0  0
   -5.2713   -1.7205  -17.3339 O   0  0  0  0  0
   -7.2406    0.8719  -16.6450 O   0  0  0  0  0
   -8.5295   -0.7156  -18.2247 O   0  0  0  0  0
   -7.8062   -3.6904  -18.9329 O   0  0  0  0  0
   -7.2364   -4.7240  -21.2573 O   0  0  0  0  0
   -8.8791   -5.8766  -19.8575 O   0  0  0  0  0
   -7.3595   -6.2822  -17.0715 O   0  0  0  0  0
   -5.0481   -8.6057  -19.7576 O   0  0  0  0  0
   -6.9407  -12.5715  -18.1640 O   0  0  0  0  0
   -8.2470  -10.5899  -21.3643 O   0  0  0  0  0
  -11.9184  -13.4013  -20.2459 O   0  0  0  0  0
   -9.8805  -16.6812  -22.8585 O   0  0  0  0  0
  -10.3650  -19.6935  -23.0624 O   0  0  0  0  0
  -13.6707  -16.2760  -22.9601 O   0  0  0  0  0
   -6.7900  -15.5411  -22.3106 O   0  0  0  0  0
   -2.4798   -6.8798  -15.7566 O   0  0  0  0  0
   -1.7405   -7.8703  -17.6959 O   0  0  0  0  0
   -7.5966   -5.0937  -19.8438 S   0  0  0  0  0
  -15.5787  -19.3493  -23.2022 S   0  0  0  0  0
  3 22  1  0  0  0
  5 28  1  0  0  0
  6 30  1  0  0  0
  7 32  1  0  0  0
  8 34  1  0  0  0
  9 36  1  0  0  0
 10 38  1  0  0  0
 11 40  1  0  0  0
 13 48  1  0  0  0
 18  2  1  0  0  0
 19 20  1  0  0  0
 19 17  1  0  0  0
 20  4  1  0  0  0
 21  3  1  0  0  0
 21  1  1  0  0  0
 23  3  1  0  0  0
 23 56  1  0  0  0
 24 56  1  0  0  0
 24 25  1  0  0  0
 24 27  1  0  0  0
 25 26  1  0  0  0
 25 58  1  0  0  0
 26 57  1  0  0  0
 26 23  1  0  0  0
 27 59  1  0  0  0
 29 28  1  0  0  0
 29  6  1  0  0  0
 29 54  1  0  0  0
 31 30  1  0  0  0
 31  7  1  0  0  0
 31 53  1  0  0  0
 33 32  1  0  0  0
 33  8  1  0  0  0
 33 51  1  0  0  0
 35 34  1  0  0  0
 35  9  1  0  0  0
 37 36  1  0  0  0
 37 10  1  0  0  0
 37 49  1  0  0  0
 39 38  1  0  0  0
 39 11  1  0  0  0
 39 45  1  0  0  0
 41 40  1  0  0  0
 41 12  1  0  0  0
 41 42  1  0  0  0
 42 43  1  0  0  0
 43 74  1  0  0  0
 44 74  1  0  0  0
 45 46  1  0  0  0
 46 47  1  0  0  0
 47 13  1  0  0  0
 48 15  1  0  0  0
 49 69  1  0  0  0
 49 50  1  0  0  0
 51 52  1  0  0  0
 52 16  1  0  0  0
 54 55  1  0  0  0
 55 72  1  0  0  0
 73 59  1  0  0  0
 73  5  1  0  0  0
 18  1  2  0  0  0
 19  2  2  0  0  0
 20 21  2  0  0  0
 22  4  2  0  0  0
 28 62  2  0  0  0
 30 63  2  0  0  0
 32 64  2  0  0  0
 34 65  2  0  0  0
 36 66  2  0  0  0
 38 67  2  0  0  0
 40 68  2  0  0  0
 48 14  2  0  0  0
 52 70  2  0  0  0
 55 71  2  0  0  0
 73 60  2  0  0  0
 73 61  2  0  0  0
M  END
> <rmsd>
0.719571769

$$$$
CHEMBL3582369 PubChem-137090996


 50 53  0  0  0  0  0  0  0  0999 V2000
  -10.5566   -4.7983  -18.7242 C   0  0  0  0  0
   -9.1244   -5.2482  -18.9520 C   0  0  0  0  0
   -9.0628   -6.1491  -20.0661 C   0  0  0  0  0
   -6.9377   -7.4037  -19.2424 C   0  0  0  0  0
   -6.2931   -8.7208  -19.0069 C   0  0  0  0  0
   -2.7642   -8.0519  -19.6412 C   0  0  0  0  0
   -2.1097   -6.7314  -20.0007 C   0  0  0  0  0
   -2.5297   -9.0238  -20.7895 C   0  0  0  0  0
   -2.1689   -8.5651  -18.3577 C   0  0  0  0  0
   -7.0981   -9.9107  -18.6511 C   0  0  0  0  0
   -8.4344   -9.8404  -18.2369 C   0  0  0  0  0
   -7.4491  -12.0922  -18.2815 C   0  0  0  0  0
   -8.2575   -5.1278  -20.8038 C   0  0  0  0  0
   -7.9456   -2.8924  -19.3487 C   0  0  0  0  0
   -4.5873    0.5526  -18.9682 C   0  0  0  0  0
   -3.1296    0.7287  -18.8241 C   0  0  0  0  0
   -2.5110    0.4585  -17.5981 C   0  0  0  0  0
   -1.1355    0.6450  -17.4628 C   0  0  0  0  0
   -0.3892    1.0958  -18.5544 C   0  0  0  0  0
   -1.0361    1.3483  -19.7644 C   0  0  0  0  0
   -4.9281    1.7118  -21.2134 C   0  0  0  0  0
   -4.6685    3.1805  -20.9084 C   0  0  0  0  0
   -6.5807    0.6097  -19.6808 C   0  0  0  0  0
   -8.2791   -7.3466  -19.7531 N   0  0  0  0  0
   -5.0065   -8.8692  -19.1274 N   0  0  0  0  0
   -7.1320  -13.4728  -18.1562 N   0  0  0  0  0
   -6.5534  -11.1606  -18.6583 N   0  0  0  0  0
   -8.3820   -4.2155  -19.6479 N   0  0  0  0  0
   -8.2730   -2.3107  -18.0847 N   0  0  0  0  0
   -6.5943   -0.0261  -18.4984 N   0  0  0  0  0
   -5.3538   -0.0640  -18.0370 N   0  0  0  0  0
   -2.3778    1.1623  -19.8716 N   0  0  0  0  0
   -5.3355    0.9887  -20.0136 N   0  0  0  0  0
   -6.7461    3.8159  -19.0333 N   0  0  0  0  0
   -6.3022   -6.3401  -19.0077 O   0  0  0  0  0
   -4.1618   -7.8373  -19.4815 O   0  0  0  0  0
   -2.3002   -7.9025  -17.2953 O   0  0  0  0  0
   -1.4729   -9.7694  -18.3227 O   0  0  0  0  0
   -7.7087   -5.0675  -21.9344 O   0  0  0  0  0
   -7.2785   -2.2512  -20.2008 O   0  0  0  0  0
   -7.7063   -0.5797  -16.1803 O   0  0  0  0  0
   -9.1825    0.1743  -17.9736 O   0  0  0  0  0
   -0.5764    0.4056  -16.3600 O   0  0  0  0  0
    0.9802    1.2941  -18.4453 O   0  0  0  0  0
   -5.9419    5.5415  -20.8567 O   0  0  0  0  0
   -7.2334    3.6095  -21.6244 O   0  0  0  0  0
   -7.6041    0.8396  -20.3777 O   0  0  0  0  0
   -8.9290  -11.4165  -17.8934 S   0  0  0  0  0
   -7.9719   -0.6571  -17.6565 S   0  0  0  0  0
   -6.1888    4.0746  -20.6482 S   0  0  0  0  0
  2  1  1  0  0  0
  2  3  1  0  0  0
  2 28  1  0  0  0
  3 24  1  0  0  0
  3 13  1  0  0  0
  4  5  1  0  0  0
  5 10  1  0  0  0
  6 36  1  0  0  0
  6  7  1  0  0  0
  6  8  1  0  0  0
  6  9  1  0  0  0
  9 38  1  0  0  0
 10 27  1  0  0  0
 11 48  1  0  0  0
 12 48  1  0  0  0
 12 26  1  0  0  0
 13 28  1  0  0  0
 14 29  1  0  0  0
 15 16  1  0  0  0
 15 33  1  0  0  0
 17 18  1  0  0  0
 18 19  1  0  0  0
 19 44  1  0  0  0
 20 32  1  0  0  0
 21 33  1  0  0  0
 21 22  1  0  0  0
 22 50  1  0  0  0
 23 30  1  0  0  0
 24  4  1  0  0  0
 25 36  1  0  0  0
 28 14  1  0  0  0
 30 31  1  0  0  0
 32 16  1  0  0  0
 33 23  1  0  0  0
 49 29  1  0  0  0
 49 30  1  0  0  0
 50 34  1  0  0  0
  4 35  2  0  0  0
  5 25  2  0  0  0
  9 37  2  0  0  0
 10 11  2  0  0  0
 12 27  2  0  0  0
 13 39  2  0  0  0
 14 40  2  0  0  0
 15 31  2  0  0  0
 16 17  2  0  0  0
 18 43  2  0  0  0
 19 20  2  0  0  0
 23 47  2  0  0  0
 49 41  2  0  0  0
 49 42  2  0  0  0
 50 45  2  0  0  0
 50 46  2  0  0  0
M  END
> <rmsd>
0.62798363

$$$$
CHEMBL2016855


 48 51  0  0  0  0  0  0  0  0999 V2000
   -9.4180    0.4228  -18.1845 O   0  0  0  0  0
   -8.2910    0.4547  -20.3508 O   0  0  0  0  0
   -0.2009    1.1830  -16.4782 O   0  0  0  0  0
    0.6507    1.5257  -19.0739 O   0  0  0  0  0
   -7.3942   -0.6283  -16.0621 O   0  0  0  0  0
   -3.3581   -2.1833  -16.0729 O   0  0  0  0  0
   -7.0191   -2.2256  -20.8267 O   0  0  0  0  0
   -6.7961   -5.3967  -21.8458 O   0  0  0  0  0
   -9.2687   -8.6406  -18.8930 O   0  0  0  0  0
   -5.2829   -8.2168  -19.0335 O   0  0  0  0  0
   -1.9419   -7.4346  -18.0004 O   0  0  0  0  0
   -3.9516   -7.0026  -16.9957 O   0  0  0  0  0
   -8.3313   -0.2125  -19.0049 S   0  0  0  0  0
   -7.8222  -11.6758  -15.0252 S   0  0  0  0  0
   -6.8117   -0.0150  -18.2028 N   0  0  0  0  0
   -5.6857    0.3378  -18.8023 N   0  0  0  0  0
   -2.9180    0.8236  -19.4171 N   0  0  0  0  0
   -5.2444   -0.0308  -16.6370 N   0  0  0  0  0
   -8.6606   -1.9007  -19.1977 N   0  0  0  0  0
   -8.1522   -4.1288  -20.1285 N   0  0  0  0  0
   -7.6521   -7.0063  -19.2594 N   0  0  0  0  0
   -5.8661   -9.0032  -18.0615 N   0  0  0  0  0
   -8.9978  -10.0422  -16.5209 N   0  0  0  0  0
  -10.5250  -11.2047  -15.0199 N   0  0  0  0  0
   -4.7302    0.3282  -17.8423 C   0  0  0  0  0
   -3.3155    0.6471  -18.1251 C   0  0  0  0  0
   -2.3743    0.7739  -17.0946 C   0  0  0  0  0
   -1.0466    1.0695  -17.4031 C   0  0  0  0  0
   -0.6662    1.2376  -18.7387 C   0  0  0  0  0
   -1.6287    1.1115  -19.7418 C   0  0  0  0  0
   -6.5433   -0.2450  -16.9095 C   0  0  0  0  0
   -4.5670   -0.2476  -15.3635 C   0  0  0  0  0
   -4.2965   -1.7291  -15.1467 C   0  0  0  0  0
   -3.7571   -1.9376  -13.7469 C   0  0  0  0  0
   -7.9062   -2.7267  -20.0856 C   0  0  0  0  0
   -8.9815   -5.0615  -19.3944 C   0  0  0  0  0
   -8.4950   -6.1969  -20.1243 C   0  0  0  0  0
   -7.6291   -5.2654  -20.9117 C   0  0  0  0  0
   -8.0859   -8.2478  -18.6990 C   0  0  0  0  0
   -7.1534   -9.0646  -17.8784 C   0  0  0  0  0
   -3.8713   -8.1768  -19.2160 C   0  0  0  0  0
   -3.1986   -7.5259  -18.0406 C   0  0  0  0  0
   -3.5758   -7.3741  -20.4678 C   0  0  0  0  0
   -3.3368   -9.5872  -19.4110 C   0  0  0  0  0
   -7.6735   -9.9786  -16.8365 C   0  0  0  0  0
   -9.2299  -10.9356  -15.5430 C   0  0  0  0  0
   -6.8384  -10.8265  -16.0981 C   0  0  0  0  0
  -10.4473   -4.8251  -19.7199 C   0  0  0  0  0
 13 15  1  0  0  0
 13 19  1  0  0  0
 15 16  1  0  0  0
 17 26  1  0  0  0
 18 31  1  0  0  0
 21 39  1  0  0  0
 22 10  1  0  0  0
 25 26  1  0  0  0
 25 18  1  0  0  0
 27 28  1  0  0  0
 28 29  1  0  0  0
 29  4  1  0  0  0
 30 17  1  0  0  0
 31 15  1  0  0  0
 32 18  1  0  0  0
 32 33  1  0  0  0
 33 34  1  0  0  0
 33  6  1  0  0  0
 35 19  1  0  0  0
 35 20  1  0  0  0
 36 20  1  0  0  0
 36 37  1  0  0  0
 36 48  1  0  0  0
 37 38  1  0  0  0
 37 21  1  0  0  0
 38 20  1  0  0  0
 39 40  1  0  0  0
 40 45  1  0  0  0
 41 10  1  0  0  0
 41 42  1  0  0  0
 41 43  1  0  0  0
 41 44  1  0  0  0
 42 12  1  0  0  0
 45 23  1  0  0  0
 46 14  1  0  0  0
 46 24  1  0  0  0
 47 14  1  0  0  0
 13  1  2  0  0  0
 13  2  2  0  0  0
 25 16  2  0  0  0
 26 27  2  0  0  0
 28  3  2  0  0  0
 29 30  2  0  0  0
 31  5  2  0  0  0
 35  7  2  0  0  0
 38  8  2  0  0  0
 39  9  2  0  0  0
 40 22  2  0  0  0
 42 11  2  0  0  0
 46 23  2  0  0  0
 47 45  2  0  0  0
M  CHG  2  19  -1  12  -1
M  END
> <rmsd>
0.847065449

$$$$
CHEMBL4781336 PubChem-162664400


 50 56  0  0  0  0  0  0  0  0999 V2000
   -5.2072   -1.3905  -15.4716 O   0  0  0  0  0
   -6.5003    0.5337  -16.2293 O   0  0  0  0  0
   -8.6276   -0.7319  -19.0601 O   0  0  0  0  0
  -11.5162   -2.6433  -19.1514 O   0  0  0  0  0
  -14.2520   -1.8383  -18.9100 O   0  0  0  0  0
  -10.7284    0.7531  -19.0366 O   0  0  0  0  0
   -4.7412   -4.6419  -19.0597 O   0  0  0  0  0
   -7.2181   -6.5243  -17.6622 O   0  0  0  0  0
   -7.6519   -4.0237  -17.2120 O   0  0  0  0  0
   -5.4744   -0.4856  -16.6417 S   0  0  0  0  0
   -6.0936   -1.4183  -17.9680 N   0  0  0  0  0
   -9.5951   -3.7556  -19.9187 N   0  0  0  0  0
   -8.5632   -5.0423  -21.4809 N   0  0  0  0  0
  -10.3625   -5.5695  -18.5142 N   0  0  0  0  0
   -9.7601   -7.7287  -19.3128 N   0  0  0  0  0
   -8.4906   -8.0306  -21.3635 N   0  0  0  0  0
   -3.9798   -6.7414  -18.3426 N   0  0  0  0  0
   -2.0543   -7.4714  -17.4000 N   0  0  0  0  0
   -4.2688   -8.5810  -19.8808 N   0  0  0  0  0
   -2.5496  -10.2233  -19.7492 N   0  0  0  0  0
   -0.6991  -10.0197  -18.1961 N   0  0  0  0  0
   -6.2493   -0.5198  -19.1025 C   0  0  0  0  0
   -7.5046   -0.8650  -19.8798 C   0  0  0  0  0
   -9.6766   -1.2838  -19.8039 C   0  0  0  0  0
  -10.9264   -0.4333  -19.7484 C   0  0  0  0  0
  -11.9280   -1.3063  -19.0288 C   0  0  0  0  0
  -10.1121   -2.6021  -19.1803 C   0  0  0  0  0
   -8.8850   -3.7774  -21.0816 C   0  0  0  0  0
   -9.1033   -5.8103  -20.5170 C   0  0  0  0  0
   -9.7189   -5.0444  -19.5877 C   0  0  0  0  0
  -10.3781   -6.9312  -18.3813 C   0  0  0  0  0
   -9.1143   -7.1920  -20.3930 C   0  0  0  0  0
  -13.3051   -1.1224  -19.6450 C   0  0  0  0  0
   -5.0798   -2.4013  -18.3261 C   0  0  0  0  0
   -5.7183   -3.7562  -18.5857 C   0  0  0  0  0
   -6.2910   -4.3272  -17.3092 C   0  0  0  0  0
   -6.0404   -5.8105  -17.4337 C   0  0  0  0  0
   -5.1473   -5.9248  -18.6503 C   0  0  0  0  0
   -3.0055   -6.4940  -17.4278 C   0  0  0  0  0
   -2.4794   -8.3381  -18.3375 C   0  0  0  0  0
   -3.6270   -7.9012  -18.9010 C   0  0  0  0  0
   -3.7161   -9.7582  -20.3055 C   0  0  0  0  0
   -1.9111   -9.5303  -18.7613 C   0  0  0  0  0
   -3.9845    0.3400  -17.0914 C   0  0  0  0  0
   -4.0386    1.6307  -17.6301 C   0  0  0  0  0
   -2.8644    2.2741  -18.0319 C   0  0  0  0  0
   -1.6307    1.6263  -17.8992 C   0  0  0  0  0
   -1.5732    0.3371  -17.3614 C   0  0  0  0  0
   -2.7494   -0.3071  -16.9600 C   0  0  0  0  0
   -0.1585    2.4298  -18.4107 Cl  0  0  0  0  0
 10 11  1  0  0  0
 10 44  1  0  0  0
 12 28  1  0  0  0
 17 39  1  0  0  0
 22 11  1  0  0  0
 22 23  1  0  0  0
 23  3  1  0  0  0
 24  3  1  0  0  0
 24 25  1  0  0  0
 25 26  1  0  0  0
 25  6  1  0  0  0
 26  4  1  0  0  0
 26 33  1  0  0  0
 27  4  1  0  0  0
 27 12  1  0  0  0
 27 24  1  0  0  0
 29 13  1  0  0  0
 30 14  1  0  0  0
 30 12  1  0  0  0
 31 15  1  0  0  0
 32 16  1  0  0  0
 32 29  1  0  0  0
 33  5  1  0  0  0
 34 11  1  0  0  0
 35 34  1  0  0  0
 35 36  1  0  0  0
 35  7  1  0  0  0
 36 37  1  0  0  0
 36  9  1  0  0  0
 37 38  1  0  0  0
 37  8  1  0  0  0
 38  7  1  0  0  0
 38 17  1  0  0  0
 40 18  1  0  0  0
 41 19  1  0  0  0
 41 17  1  0  0  0
 42 20  1  0  0  0
 43 21  1  0  0  0
 43 40  1  0  0  0
 45 46  1  0  0  0
 47 48  1  0  0  0
 47 50  1  0  0  0
 49 44  1  0  0  0
 10  1  2  0  0  0
 10  2  2  0  0  0
 28 13  2  0  0  0
 29 30  2  0  0  0
 31 14  2  0  0  0
 32 15  2  0  0  0
 39 18  2  0  0  0
 40 41  2  0  0  0
 42 19  2  0  0  0
 43 20  2  0  0  0
 44 45  2  0  0  0
 46 47  2  0  0  0
 48 49  2  0  0  0
M  END
> <rmsd>
0.799080789

$$$$
CHEMBL4215018 PubChem-145972762


 84 90  0  0  0  0  0  0  0  0999 V2000
  -19.1395  -15.1912  -25.7081 O   0  0  0  0  0
  -19.2297  -16.9709  -27.3921 O   0  0  0  0  0
  -17.0733  -16.8049  -25.9208 O   0  0  0  0  0
  -12.1184  -14.8880  -22.3324 O   0  0  0  0  0
   -9.9407  -11.1780  -20.1638 O   0  0  0  0  0
   -7.8327   -4.9434  -21.0369 O   0  0  0  0  0
   -4.0022   -7.6355  -19.8097 O   0  0  0  0  0
   -1.4416   -7.0472  -19.5997 O   0  0  0  0  0
   -2.6555   -7.6449  -17.5463 O   0  0  0  0  0
   -2.1039   -9.5400  -19.2372 O   0  0  0  0  0
   -7.6185   -2.4053  -20.5095 O   0  0  0  0  0
   -3.9709   -2.9314  -18.9330 O   0  0  0  0  0
   -1.2354    2.5338  -16.9665 O   0  0  0  0  0
   -0.8290    2.0805  -14.4264 O   0  0  0  0  0
    0.6996    3.6302  -15.5726 O   0  0  0  0  0
    0.9485    1.0700  -16.0538 O   0  0  0  0  0
   -3.1010    3.0446  -18.9539 O   0  0  0  0  0
   -3.7252    4.8133  -20.7814 O   0  0  0  0  0
   -4.3040    2.4702  -21.2777 O   0  0  0  0  0
   -1.7796    3.1824  -21.3815 O   0  0  0  0  0
   -6.3348   -0.2198  -19.5173 O   0  0  0  0  0
   -8.6890   -0.6582  -18.4016 O   0  0  0  0  0
   -7.9080    1.6571  -18.5873 O   0  0  0  0  0
   -6.8004    0.1288  -16.8094 O   0  0  0  0  0
  -12.1498  -10.9788  -21.4859 O   0  0  0  0  0
  -14.1966  -11.9639  -22.9645 O   0  0  0  0  0
  -15.1251  -10.8743  -20.7591 O   0  0  0  0  0
  -16.2175  -12.9143  -21.5905 O   0  0  0  0  0
  -16.6348  -10.6837  -22.8542 O   0  0  0  0  0
   -8.0854  -15.6441  -19.9313 O   0  0  0  0  0
  -10.2327  -18.5865  -20.3385 O   0  0  0  0  0
  -11.1512  -15.7468  -17.7949 O   0  0  0  0  0
   -8.0566  -17.8958  -19.0059 O   0  0  0  0  0
  -15.3046  -18.2751  -24.2504 O   0  0  0  0  0
  -16.2282  -19.2620  -26.5400 O   0  0  0  0  0
  -14.9057  -20.7289  -25.0965 O   0  0  0  0  0
  -13.6485  -18.8836  -26.4077 O   0  0  0  0  0
  -17.7150  -14.9448  -27.8786 O   0  0  0  0  0
  -18.3390  -15.9741  -26.7149 S   0  0  0  0  0
   -2.5173   -7.9269  -19.0164 S   0  0  0  0  0
   -0.0963    2.3481  -15.7079 S   0  0  0  0  0
   -3.2798    3.3860  -20.6256 S   0  0  0  0  0
   -7.4843    0.2397  -18.3391 S   0  0  0  0  0
  -15.5498  -11.6253  -21.9862 S   0  0  0  0  0
   -4.9103  -13.9928  -17.7736 S   0  0  0  0  0
  -15.0605  -19.3188  -25.5905 S   0  0  0  0  0
  -16.0755  -16.1527  -25.1903 C   0  0  0  0  0
  -15.2195  -16.8867  -24.3504 C   0  0  0  0  0
  -14.2690  -16.2133  -23.5733 C   0  0  0  0  0
  -14.1458  -14.8197  -23.6258 C   0  0  0  0  0
  -13.1134  -14.1464  -22.8051 C   0  0  0  0  0
  -11.1300  -14.4015  -21.5938 C   0  0  0  0  0
  -10.1256  -15.2618  -21.1523 C   0  0  0  0  0
   -9.0738  -14.7776  -20.3756 C   0  0  0  0  0
   -9.0089  -13.4229  -20.0533 C   0  0  0  0  0
  -10.0078  -12.5374  -20.4878 C   0  0  0  0  0
   -8.8787  -10.6048  -19.4090 C   0  0  0  0  0
   -9.0994   -9.1381  -19.3126 C   0  0  0  0  0
   -9.7372   -8.5859  -18.1951 C   0  0  0  0  0
   -9.9906   -7.2113  -18.1401 C   0  0  0  0  0
   -9.6106   -6.3919  -19.2104 C   0  0  0  0  0
   -8.9833   -6.9451  -20.3307 C   0  0  0  0  0
   -8.7411   -8.3196  -20.3853 C   0  0  0  0  0
   -8.5806   -6.0776  -21.4798 C   0  0  0  0  0
   -6.5435   -5.0251  -20.4782 C   0  0  0  0  0
   -5.8780   -6.2609  -20.4091 C   0  0  0  0  0
   -4.6064   -6.3767  -19.8550 C   0  0  0  0  0
   -3.9772   -5.2391  -19.3461 C   0  0  0  0  0
   -4.6058   -3.9945  -19.4083 C   0  0  0  0  0
   -5.8976   -3.8714  -19.9743 C   0  0  0  0  0
   -6.4788   -2.5897  -20.0055 C   0  0  0  0  0
   -5.7700   -1.4967  -19.4934 C   0  0  0  0  0
   -4.4818   -1.7048  -18.9616 C   0  0  0  0  0
   -3.6627   -0.5939  -18.4334 C   0  0  0  0  0
   -3.7707    0.7029  -18.9529 C   0  0  0  0  0
   -2.9689    1.7452  -18.4622 C   0  0  0  0  0
   -2.0412    1.4884  -17.4386 C   0  0  0  0  0
   -1.9161    0.1842  -16.9371 C   0  0  0  0  0
   -2.7171   -0.8474  -17.4321 C   0  0  0  0  0
  -11.0867  -13.0307  -21.2605 C   0  0  0  0  0
  -12.1285  -12.2130  -21.7370 C   0  0  0  0  0
  -13.1551  -12.7704  -22.5057 C   0  0  0  0  0
  -14.9760  -14.1058  -24.4970 C   0  0  0  0  0
  -15.9309  -14.7636  -25.2678 C   0  0  0  0  0
 39  3  1  0  0  0
 39 38  1  0  0  0
 40  7  1  0  0  0
 40 10  1  0  0  0
 41 13  1  0  0  0
 41 16  1  0  0  0
 42 17  1  0  0  0
 42 20  1  0  0  0
 43 21  1  0  0  0
 43 24  1  0  0  0
 44 26  1  0  0  0
 44 29  1  0  0  0
 45 30  1  0  0  0
 45 31  1  0  0  0
 45 32  1  0  0  0
 45 33  1  0  0  0
 46 34  1  0  0  0
 46 37  1  0  0  0
 47  3  1  0  0  0
 48 49  1  0  0  0
 48 34  1  0  0  0
 50 51  1  0  0  0
 50 83  1  0  0  0
 51  4  1  0  0  0
 52  4  1  0  0  0
 53 54  1  0  0  0
 54 30  1  0  0  0
 55 56  1  0  0  0
 56  5  1  0  0  0
 57  5  1  0  0  0
 57 58  1  0  0  0
 59 60  1  0  0  0
 61 62  1  0  0  0
 63 58  1  0  0  0
 64 62  1  0  0  0
 64  6  1  0  0  0
 65  6  1  0  0  0
 66 67  1  0  0  0
 67  7  1  0  0  0
 68 69  1  0  0  0
 69 12  1  0  0  0
 70 71  1  0  0  0
 70 65  1  0  0  0
 71 72  1  0  0  0
 72 21  1  0  0  0
 73 12  1  0  0  0
 73 74  1  0  0  0
 75 76  1  0  0  0
 76 17  1  0  0  0
 77 78  1  0  0  0
 77 13  1  0  0  0
 79 74  1  0  0  0
 80 81  1  0  0  0
 80 52  1  0  0  0
 81 82  1  0  0  0
 82 26  1  0  0  0
 84 47  1  0  0  0
 39  1  2  0  0  0
 39  2  2  0  0  0
 40  8  2  0  0  0
 40  9  2  0  0  0
 41 14  2  0  0  0
 41 15  2  0  0  0
 42 18  2  0  0  0
 42 19  2  0  0  0
 43 22  2  0  0  0
 43 23  2  0  0  0
 44 27  2  0  0  0
 44 28  2  0  0  0
 46 35  2  0  0  0
 46 36  2  0  0  0
 47 48  2  0  0  0
 49 50  2  0  0  0
 52 53  2  0  0  0
 54 55  2  0  0  0
 56 80  2  0  0  0
 58 59  2  0  0  0
 60 61  2  0  0  0
 62 63  2  0  0  0
 65 66  2  0  0  0
 67 68  2  0  0  0
 69 70  2  0  0  0
 71 11  2  0  0  0
 72 73  2  0  0  0
 74 75  2  0  0  0
 76 77  2  0  0  0
 78 79  2  0  0  0
 81 25  2  0  0  0
 82 51  2  0  0  0
 83 84  2  0  0  0
M  CHG  8  10  -1  16  -1  20  -1  24  -1  29  -1  33  -1  37  -1  38  -1
M  END
> <rmsd>
0.768435597

$$$$
CHEMBL4793508 PubChem-162672832


 53 59  0  0  0  0  0  0  0  0999 V2000
   -3.0805   -3.1950  -22.1433 O   0  0  0  0  0
   -2.7844   -1.1257  -20.8769 O   0  0  0  0  0
   -5.5624   -1.1898  -24.4384 O   0  0  0  0  0
   -4.7517   -3.5986  -26.8680 O   0  0  0  0  0
   -2.9492   -3.6372  -29.0354 O   0  0  0  0  0
   -4.6364   -0.2151  -26.6481 O   0  0  0  0  0
   -5.1876   -1.8633  -17.9813 O   0  0  0  0  0
   -7.2802   -0.6275  -15.9713 O   0  0  0  0  0
   -8.0475    0.1135  -18.3461 O   0  0  0  0  0
   -4.2748   -7.3454  -19.0974 O   0  0  0  0  0
   -2.6000   -7.8731  -17.6842 O   0  0  0  0  0
   -3.4964   -2.4515  -20.9053 S   0  0  0  0  0
   -5.2291   -2.2133  -20.8836 N   0  0  0  0  0
   -5.3692   -4.3482  -24.7378 N   0  0  0  0  0
   -4.6436   -6.0269  -23.4088 N   0  0  0  0  0
   -7.6517   -4.3237  -23.9545 N   0  0  0  0  0
   -8.1034   -5.9195  -22.2513 N   0  0  0  0  0
   -6.3921   -7.4275  -21.4292 N   0  0  0  0  0
   -3.8114   -0.4453  -16.6967 N   0  0  0  0  0
   -1.6769   -0.0570  -16.0498 N   0  0  0  0  0
   -3.8245    1.0932  -18.5705 N   0  0  0  0  0
   -1.7640    2.2348  -18.9029 N   0  0  0  0  0
    0.1508    1.8454  -17.4774 N   0  0  0  0  0
   -3.3797   -6.9410  -18.3321 N   0  0  0  0  0
   -5.7748   -2.1446  -22.2405 C   0  0  0  0  0
   -5.1083   -1.0807  -23.1188 C   0  0  0  0  0
   -4.6516   -2.0438  -25.0794 C   0  0  0  0  0
   -3.9972   -1.4015  -26.2766 C   0  0  0  0  0
   -4.1631   -2.4236  -27.3813 C   0  0  0  0  0
   -5.3786   -3.2304  -25.6697 C   0  0  0  0  0
   -4.3115   -5.1107  -24.3617 C   0  0  0  0  0
   -5.9553   -5.7997  -23.2027 C   0  0  0  0  0
   -6.3883   -4.8044  -24.0026 C   0  0  0  0  0
   -8.5153   -4.8972  -23.0659 C   0  0  0  0  0
   -6.8241   -6.3872  -22.2977 C   0  0  0  0  0
   -2.8104   -2.7468  -27.9719 C   0  0  0  0  0
   -5.5585   -0.9769  -20.1826 C   0  0  0  0  0
   -6.1625   -1.2783  -18.8212 C   0  0  0  0  0
   -6.6623    0.0038  -18.1990 C   0  0  0  0  0
   -6.2481   -0.0984  -16.7544 C   0  0  0  0  0
   -5.1159   -1.1009  -16.7986 C   0  0  0  0  0
   -2.8247   -0.7528  -15.8202 C   0  0  0  0  0
   -1.9891    0.6994  -17.1146 C   0  0  0  0  0
   -3.2606    0.4679  -17.5045 C   0  0  0  0  0
   -3.0623    1.9881  -19.2705 C   0  0  0  0  0
   -1.2029    1.5989  -17.8237 C   0  0  0  0  0
   -3.0161   -3.4080  -19.5149 C   0  0  0  0  0
   -2.2512   -2.8401  -18.4920 C   0  0  0  0  0
   -1.8852   -3.6025  -17.3842 C   0  0  0  0  0
   -2.2590   -4.9424  -17.2955 C   0  0  0  0  0
   -3.0091   -5.5415  -18.3416 C   0  0  0  0  0
   -3.3887   -4.7527  -19.4382 C   0  0  0  0  0
   -1.7949   -5.8049  -15.8353 Cl  0  0  0  0  0
 12 13  1  0  0  0
 12 47  1  0  0  0
 14 31  1  0  0  0
 19 42  1  0  0  0
 24 11  1  0  0  0
 25 13  1  0  0  0
 25 26  1  0  0  0
 26  3  1  0  0  0
 27  3  1  0  0  0
 27 28  1  0  0  0
 28 29  1  0  0  0
 28  6  1  0  0  0
 29  4  1  0  0  0
 29 36  1  0  0  0
 30  4  1  0  0  0
 30 14  1  0  0  0
 30 27  1  0  0  0
 32 15  1  0  0  0
 33 16  1  0  0  0
 33 14  1  0  0  0
 34 17  1  0  0  0
 35 18  1  0  0  0
 35 32  1  0  0  0
 36  5  1  0  0  0
 37 13  1  0  0  0
 38 37  1  0  0  0
 38 39  1  0  0  0
 38  7  1  0  0  0
 39 40  1  0  0  0
 39  9  1  0  0  0
 40 41  1  0  0  0
 40  8  1  0  0  0
 41  7  1  0  0  0
 41 19  1  0  0  0
 43 20  1  0  0  0
 44 21  1  0  0  0
 44 19  1  0  0  0
 45 22  1  0  0  0
 46 23  1  0  0  0
 46 43  1  0  0  0
 48 49  1  0  0  0
 50 51  1  0  0  0
 50 53  1  0  0  0
 51 24  1  0  0  0
 52 47  1  0  0  0
 12  1  2  0  0  0
 12  2  2  0  0  0
 24 10  2  0  0  0
 31 15  2  0  0  0
 32 33  2  0  0  0
 34 16  2  0  0  0
 35 17  2  0  0  0
 42 20  2  0  0  0
 43 44  2  0  0  0
 45 21  2  0  0  0
 46 22  2  0  0  0
 47 48  2  0  0  0
 49 50  2  0  0  0
 51 52  2  0  0  0
M  CHG  2  24   1  11  -1
M  END
> <rmsd>
0.818463206

$$$$
CHEMBL2058183 PubChem-11579082


 90101  0  0  0  0  0  0  0  0999 V2000
   -1.2399   14.1294  -18.0471 C   0  0  0  0  0
   -0.1625   15.1696  -17.7708 C   0  0  0  0  0
   -0.5513   16.0501  -16.5970 C   0  0  0  0  0
   -0.6823   17.4111  -17.2213 C   0  0  0  0  0
    0.1363   17.2858  -18.4814 C   0  0  0  0  0
    0.3159   19.1915  -20.1086 C   0  0  0  0  0
   -1.6004   19.1907  -21.0217 C   0  0  0  0  0
   -2.7514   19.4099  -21.7644 C   0  0  0  0  0
   -3.7656   17.5912  -20.5977 C   0  0  0  0  0
   -1.5694   18.2000  -20.1046 C   0  0  0  0  0
   -3.5010   12.0213  -18.2051 C   0  0  0  0  0
   -3.9821   10.9830  -19.1789 C   0  0  0  0  0
   -4.6043    9.9509  -18.2740 C   0  0  0  0  0
   -4.5558    8.5658  -18.9018 C   0  0  0  0  0
   -4.6341    4.4628  -18.4137 C   0  0  0  0  0
   -6.1258    4.2551  -18.3220 C   0  0  0  0  0
   -6.2797    3.4985  -17.0296 C   0  0  0  0  0
   -7.5383    2.6380  -17.0066 C   0  0  0  0  0
   -5.5822   -0.2915  -17.7754 C   0  0  0  0  0
   -5.5054   -2.5238  -17.5779 C   0  0  0  0  0
   -5.5875   -3.6277  -16.5672 C   0  0  0  0  0
   -4.3210   -4.4208  -16.8398 C   0  0  0  0  0
   -4.4575   -5.8929  -16.4777 C   0  0  0  0  0
   -4.3791   -2.9536  -18.5076 C   0  0  0  0  0
   -4.3458   -2.0427  -20.8538 C   0  0  0  0  0
   -5.8876   -3.1670  -21.7911 C   0  0  0  0  0
   -6.8305   -3.7454  -22.6308 C   0  0  0  0  0
   -7.5082   -5.1187  -20.7975 C   0  0  0  0  0
   -5.7849   -3.5751  -20.5088 C   0  0  0  0  0
   -4.0779    3.4302  -17.4447 C   0  0  0  0  0
   -3.4590    1.6924  -19.1791 C   0  0  0  0  0
   -1.4395    1.2937  -18.6588 C   0  0  0  0  0
   -0.1368    0.8360  -18.5247 C   0  0  0  0  0
    0.1269    2.3423  -16.6918 C   0  0  0  0  0
   -1.9088    2.2435  -17.8237 C   0  0  0  0  0
   -3.2765   11.2102  -16.9408 C   0  0  0  0  0
   -0.9746   10.3191  -17.5054 C   0  0  0  0  0
    0.1937   11.1801  -15.9546 C   0  0  0  0  0
    1.1764   11.6592  -15.0987 C   0  0  0  0  0
   -0.5241   12.8380  -13.9120 C   0  0  0  0  0
   -1.0922   11.5398  -15.7628 C   0  0  0  0  0
    0.4789   16.0209  -15.6529 O   0  0  0  0  0
   -0.1723   18.4214  -16.4022 O   0  0  0  0  0
    0.0791   15.9527  -18.9194 O   0  0  0  0  0
   -2.3686   14.7181  -18.6306 O   0  0  0  0  0
   -3.2468   14.4018  -16.1401 O   0  0  0  0  0
   -4.7823   15.7081  -17.7769 O   0  0  0  0  0
   -4.4902   12.9848  -17.9689 O   0  0  0  0  0
   -3.2366    8.1051  -18.9808 O   0  0  0  0  0
   -1.9935    5.8229  -19.2620 O   0  0  0  0  0
   -4.1375    6.1605  -20.7233 O   0  0  0  0  0
   -4.2705    5.7413  -17.9698 O   0  0  0  0  0
   -7.5687    1.7458  -18.0839 O   0  0  0  0  0
   -7.5782    0.1218  -15.9656 O   0  0  0  0  0
   -8.3271   -0.9063  -18.2393 O   0  0  0  0  0
   -5.1782   -1.3308  -16.9265 O   0  0  0  0  0
   -3.2399   -6.5495  -16.6765 O   0  0  0  0  0
   -2.3907   -8.8172  -17.6674 O   0  0  0  0  0
   -4.4170   -7.7165  -18.9002 O   0  0  0  0  0
   -4.6853   -8.8999  -16.4156 O   0  0  0  0  0
   -3.9953   -4.2660  -18.1934 O   0  0  0  0  0
   -6.7313   -4.3908  -16.8273 O   0  0  0  0  0
   -5.1334    2.7167  -16.8429 O   0  0  0  0  0
   -6.8245    5.4631  -18.2677 O   0  0  0  0  0
   -3.9296    9.9632  -17.0388 O   0  0  0  0  0
   -4.9243   11.4975  -20.0747 O   0  0  0  0  0
   -0.3674   18.1798  -19.5167 N   0  0  0  0  0
   -0.4245   19.8432  -21.0497 N   0  0  0  0  0
   -2.8231   20.4448  -22.7398 N   0  0  0  0  0
   -3.8216   18.5936  -21.5350 N   0  0  0  0  0
   -2.6300   17.3894  -19.8658 N   0  0  0  0  0
   -4.8200   -2.8793  -19.8955 N   0  0  0  0  0
   -4.9895   -2.1969  -22.0468 N   0  0  0  0  0
   -6.9682   -3.3403  -23.9898 N   0  0  0  0  0
   -7.6312   -4.7223  -22.1084 N   0  0  0  0  0
   -6.5740   -4.5429  -19.9816 N   0  0  0  0  0
   -3.1805    2.5104  -18.1301 N   0  0  0  0  0
   -2.3929    0.9212  -19.5341 N   0  0  0  0  0
    0.3862   -0.1714  -19.3806 N   0  0  0  0  0
    0.6289    1.3750  -17.5291 N   0  0  0  0  0
   -1.1589    2.7869  -16.8340 N   0  0  0  0  0
   -1.8485   11.0121  -16.7284 N   0  0  0  0  0
    0.3072   10.4018  -17.0475 N   0  0  0  0  0
    2.5467   11.3144  -15.2712 N   0  0  0  0  0
    0.7910   12.4860  -14.0831 N   0  0  0  0  0
   -1.4832   12.3664  -14.7640 N   0  0  0  0  0
   -3.6866   14.4348  -17.5879 P   0  0  0  0  0
   -3.3736    6.4363  -19.2365 P   0  0  0  0  0
   -7.3060    0.1879  -17.4520 P   0  0  0  0  0
   -3.6476   -8.0173  -17.4200 P   0  0  0  0  0
  1 45  1  0  0  0
  2  1  1  0  0  0
  2  3  1  0  0  0
  2 44  1  0  0  0
  3 42  1  0  0  0
  3  4  1  0  0  0
  4 43  1  0  0  0
  4  5  1  0  0  0
  5 44  1  0  0  0
  5 67  1  0  0  0
  7 68  1  0  0  0
  8 69  1  0  0  0
  8 70  1  0  0  0
  9 71  1  0  0  0
 10 67  1  0  0  0
 10  7  1  0  0  0
 11 48  1  0  0  0
 11 12  1  0  0  0
 12 13  1  0  0  0
 12 66  1  0  0  0
 13 14  1  0  0  0
 13 65  1  0  0  0
 14 49  1  0  0  0
 15 52  1  0  0  0
 15 16  1  0  0  0
 16 17  1  0  0  0
 16 64  1  0  0  0
 17 18  1  0  0  0
 17 63  1  0  0  0
 18 53  1  0  0  0
 19 56  1  0  0  0
 20 56  1  0  0  0
 20 21  1  0  0  0
 21 22  1  0  0  0
 21 62  1  0  0  0
 22 23  1  0  0  0
 22 61  1  0  0  0
 23 57  1  0  0  0
 24 61  1  0  0  0
 24 72  1  0  0  0
 24 20  1  0  0  0
 26 73  1  0  0  0
 27 74  1  0  0  0
 27 75  1  0  0  0
 28 76  1  0  0  0
 29 72  1  0  0  0
 29 26  1  0  0  0
 30 63  1  0  0  0
 30 77  1  0  0  0
 30 15  1  0  0  0
 32 78  1  0  0  0
 33 79  1  0  0  0
 33 80  1  0  0  0
 34 81  1  0  0  0
 35 77  1  0  0  0
 35 32  1  0  0  0
 36 65  1  0  0  0
 36 82  1  0  0  0
 36 11  1  0  0  0
 38 83  1  0  0  0
 39 84  1  0  0  0
 39 85  1  0  0  0
 40 86  1  0  0  0
 41 82  1  0  0  0
 41 38  1  0  0  0
 67  6  1  0  0  0
 72 25  1  0  0  0
 77 31  1  0  0  0
 82 37  1  0  0  0
 87 45  1  0  0  0
 87 47  1  0  0  0
 87 48  1  0  0  0
 88 49  1  0  0  0
 88 51  1  0  0  0
 88 52  1  0  0  0
 89 53  1  0  0  0
 89 55  1  0  0  0
 89 19  1  0  0  0
 90 57  1  0  0  0
 90 59  1  0  0  0
 90 60  1  0  0  0
  6 68  2  0  0  0
  7  8  2  0  0  0
  9 70  2  0  0  0
 10 71  2  0  0  0
 25 73  2  0  0  0
 26 27  2  0  0  0
 28 75  2  0  0  0
 29 76  2  0  0  0
 31 78  2  0  0  0
 32 33  2  0  0  0
 34 80  2  0  0  0
 35 81  2  0  0  0
 37 83  2  0  0  0
 38 39  2  0  0  0
 40 85  2  0  0  0
 41 86  2  0  0  0
 87 46  2  0  0  0
 88 50  2  0  0  0
 89 54  2  0  0  0
 90 58  2  0  0  0
M  END
> <rmsd>
0.719087303

$$$$
CHEMBL1162159 PubChem-44457251


 87 98  0  0  0  0  0  0  0  0999 V2000
   -3.9312    0.2928  -17.4779 N   0  0  0  0  0
   -2.1914    1.6984  -17.1313 N   0  0  0  0  0
   -3.4278   -0.2335  -19.7851 N   0  0  0  0  0
   -1.4922    0.8628  -20.6202 N   0  0  0  0  0
   -0.1839    2.3964  -19.2296 N   0  0  0  0  0
    1.7540    3.7565  -19.9097 N   0  0  0  0  0
   -7.9159  -14.7740  -19.4171 N   0  0  0  0  0
   -9.5272  -16.3661  -19.4330 N   0  0  0  0  0
   -8.0859  -14.2154  -17.0682 N   0  0  0  0  0
   -9.7243  -15.4792  -15.8944 N   0  0  0  0  0
  -11.0563  -17.2040  -17.0071 N   0  0  0  0  0
  -12.6432  -18.7720  -15.9612 N   0  0  0  0  0
   -3.3010    1.1116  -16.5971 C   0  0  0  0  0
   -2.1626    1.2167  -18.3889 C   0  0  0  0  0
   -3.2041    0.3818  -18.5972 C   0  0  0  0  0
   -2.5535    0.0139  -20.8057 C   0  0  0  0  0
   -1.2715    1.4826  -19.4186 C   0  0  0  0  0
    0.7457    2.7974  -20.2403 C   0  0  0  0  0
    2.7480    4.2966  -20.7907 C   0  0  0  0  0
    2.8516    3.8895  -22.1318 C   0  0  0  0  0
    3.8300    4.4356  -22.9666 C   0  0  0  0  0
    4.7127    5.3976  -22.4646 C   0  0  0  0  0
    4.6164    5.8091  -21.1314 C   0  0  0  0  0
    3.6361    5.2605  -20.2981 C   0  0  0  0  0
   -5.1879   -0.4158  -17.2615 C   0  0  0  0  0
   -6.3688   -1.9515  -18.4094 C   0  0  0  0  0
   -6.1951   -2.7833  -19.6684 C   0  0  0  0  0
   -6.4320  -11.6763  -17.4650 C   0  0  0  0  0
   -5.9778  -12.0718  -18.8640 C   0  0  0  0  0
   -6.8112  -13.9366  -19.8712 C   0  0  0  0  0
   -8.5962  -15.6843  -20.1610 C   0  0  0  0  0
   -9.3984  -15.8403  -18.1993 C   0  0  0  0  0
   -8.4358  -14.8916  -18.1893 C   0  0  0  0  0
   -8.7486  -14.5163  -15.9097 C   0  0  0  0  0
  -10.0700  -16.1658  -17.0266 C   0  0  0  0  0
  -11.7878  -17.6274  -15.8524 C   0  0  0  0  0
  -13.4249  -19.3570  -14.9117 C   0  0  0  0  0
  -13.4591  -18.8149  -13.6166 C   0  0  0  0  0
  -14.2358  -19.4112  -12.6188 C   0  0  0  0  0
  -14.9837  -20.5564  -12.9070 C   0  0  0  0  0
  -14.9537  -21.1014  -14.1955 C   0  0  0  0  0
  -14.1748  -20.5030  -15.1913 C   0  0  0  0  0
   -5.5168  -14.3716  -19.2157 C   0  0  0  0  0
   -4.8771  -13.1091  -18.7872 C   0  0  0  0  0
   -3.5615  -14.1043  -20.2238 C   0  0  0  0  0
   -3.0736  -13.9840  -21.6587 C   0  0  0  0  0
   -2.3798  -15.2391  -22.0750 C   0  0  0  0  0
   -1.1217  -15.5614  -21.5466 C   0  0  0  0  0
   -0.4857  -16.7498  -21.9193 C   0  0  0  0  0
   -1.1086  -17.6209  -22.8218 C   0  0  0  0  0
   -2.3632  -17.3036  -23.3501 C   0  0  0  0  0
   -3.0003  -16.1151  -22.9770 C   0  0  0  0  0
   -7.0123   -0.6345  -18.7635 C   0  0  0  0  0
   -6.3283    0.3524  -17.8981 C   0  0  0  0  0
   -8.4904    0.3929  -17.4634 C   0  0  0  0  0
   -9.4331   -0.0248  -16.3428 C   0  0  0  0  0
  -10.8578    0.0273  -16.7845 C   0  0  0  0  0
  -11.7152    0.9773  -16.2179 C   0  0  0  0  0
  -13.0570    1.0328  -16.6047 C   0  0  0  0  0
  -13.5466    0.1345  -17.5569 C   0  0  0  0  0
  -12.6948   -0.8238  -18.1165 C   0  0  0  0  0
  -11.3536   -0.8809  -17.7297 C   0  0  0  0  0
    0.6716    2.3175  -21.4043 O   0  0  0  0  0
   -5.1185   -1.7055  -17.8160 O   0  0  0  0  0
   -5.8156   -4.0839  -19.3300 O   0  0  0  0  0
   -5.2588   -4.7001  -21.8279 O   0  0  0  0  0
   -6.0883   -6.6968  -20.3270 O   0  0  0  0  0
   -3.4602   -6.4113  -20.2995 O   0  0  0  0  0
   -4.4315   -8.6508  -19.3402 O   0  0  0  0  0
   -2.9757  -10.3773  -18.0131 O   0  0  0  0  0
   -4.2380   -8.6044  -16.5374 O   0  0  0  0  0
   -6.3755   -9.2806  -15.2148 O   0  0  0  0  0
   -5.3633  -11.1387  -16.7357 O   0  0  0  0  0
   -7.0719  -12.5789  -19.5903 O   0  0  0  0  0
  -11.6825  -17.0031  -14.7622 O   0  0  0  0  0
   -3.8946  -12.8364  -19.7310 O   0  0  0  0  0
   -4.6831  -14.9465  -20.1762 O   0  0  0  0  0
   -6.7196   -8.9024  -17.7672 O   0  0  0  0  0
   -2.0433   -7.9591  -18.0816 O   0  0  0  0  0
   -4.6876   -6.2026  -17.9871 O   0  0  0  0  0
   -7.7905   -4.7112  -21.1740 O   0  0  0  0  0
   -7.2438    0.7320  -16.9216 O   0  0  0  0  0
   -8.3534   -0.6577  -18.3897 O   0  0  0  0  0
   -6.1984   -5.0358  -20.6865 P   0  0  0  0  0
   -4.6243   -6.9637  -19.5018 P   0  0  0  0  0
   -3.4233   -8.9339  -17.9976 P   0  0  0  0  0
   -5.6963   -9.4862  -16.5458 P   0  0  0  0  0
  1 13  1  0  0  0
  5 18  1  0  0  0
  6 19  1  0  0  0
  7 31  1  0  0  0
 11 36  1  0  0  0
 12 37  1  0  0  0
 14  2  1  0  0  0
 15  3  1  0  0  0
 15  1  1  0  0  0
 16  4  1  0  0  0
 17  5  1  0  0  0
 17 14  1  0  0  0
 18  6  1  0  0  0
 20 21  1  0  0  0
 22 23  1  0  0  0
 24 19  1  0  0  0
 25  1  1  0  0  0
 25 64  1  0  0  0
 26 64  1  0  0  0
 26 27  1  0  0  0
 26 53  1  0  0  0
 27 65  1  0  0  0
 28 73  1  0  0  0
 29 28  1  0  0  0
 29 74  1  0  0  0
 30 74  1  0  0  0
 30  7  1  0  0  0
 30 43  1  0  0  0
 32  8  1  0  0  0
 33  9  1  0  0  0
 33  7  1  0  0  0
 34 10  1  0  0  0
 35 11  1  0  0  0
 35 32  1  0  0  0
 36 12  1  0  0  0
 38 39  1  0  0  0
 40 41  1  0  0  0
 42 37  1  0  0  0
 43 44  1  0  0  0
 43 77  1  0  0  0
 44 76  1  0  0  0
 44 29  1  0  0  0
 45 76  1  0  0  0
 45 77  1  0  0  0
 45 46  1  0  0  0
 46 47  1  0  0  0
 48 49  1  0  0  0
 50 51  1  0  0  0
 52 47  1  0  0  0
 53 54  1  0  0  0
 53 83  1  0  0  0
 54 82  1  0  0  0
 54 25  1  0  0  0
 55 82  1  0  0  0
 55 83  1  0  0  0
 55 56  1  0  0  0
 56 57  1  0  0  0
 58 59  1  0  0  0
 60 61  1  0  0  0
 62 57  1  0  0  0
 84 65  1  0  0  0
 84 67  1  0  0  0
 84 81  1  0  0  0
 85 67  1  0  0  0
 85 69  1  0  0  0
 85 80  1  0  0  0
 86 69  1  0  0  0
 86 71  1  0  0  0
 86 79  1  0  0  0
 87 71  1  0  0  0
 87 73  1  0  0  0
 87 78  1  0  0  0
 13  2  2  0  0  0
 14 15  2  0  0  0
 16  3  2  0  0  0
 17  4  2  0  0  0
 18 63  2  0  0  0
 19 20  2  0  0  0
 21 22  2  0  0  0
 23 24  2  0  0  0
 31  8  2  0  0  0
 32 33  2  0  0  0
 34  9  2  0  0  0
 35 10  2  0  0  0
 36 75  2  0  0  0
 37 38  2  0  0  0
 39 40  2  0  0  0
 41 42  2  0  0  0
 47 48  2  0  0  0
 49 50  2  0  0  0
 51 52  2  0  0  0
 57 58  2  0  0  0
 59 60  2  0  0  0
 61 62  2  0  0  0
 84 66  2  0  0  0
 85 68  2  0  0  0
 86 70  2  0  0  0
 87 72  2  0  0  0
M  END
> <rmsd>
0.757891476

$$$$
CHEMBL2058988 PubChem-11579084


 91102  0  0  0  0  0  0  0  0999 V2000
   -6.1120   -2.5693  -20.0531 C   0  0  0  0  0
   -6.2118   -1.8659  -18.7122 C   0  0  0  0  0
   -6.9100   -0.5397  -18.8553 C   0  0  0  0  0
   -6.3355    0.2637  -17.7178 C   0  0  0  0  0
   -5.0359   -0.4605  -17.4068 C   0  0  0  0  0
   -3.5224    0.9990  -18.8181 C   0  0  0  0  0
   -2.0771    1.6062  -17.3847 C   0  0  0  0  0
   -1.0140    2.1351  -16.6672 C   0  0  0  0  0
   -1.8359    0.9898  -14.7395 C   0  0  0  0  0
   -2.9734    0.8047  -16.7680 C   0  0  0  0  0
   -4.7168   -6.5964  -20.6276 C   0  0  0  0  0
   -4.2007   -7.8491  -21.2699 C   0  0  0  0  0
   -4.5036   -8.9015  -20.2385 C   0  0  0  0  0
   -3.4655  -10.0111  -20.2957 C   0  0  0  0  0
   -3.1070  -13.2365  -21.1276 C   0  0  0  0  0
   -3.9301  -15.2905  -21.4515 C   0  0  0  0  0
   -5.1959  -15.8778  -21.9766 C   0  0  0  0  0
   -4.9766  -17.3609  -21.7718 C   0  0  0  0  0
   -5.6228  -18.1938  -22.8817 C   0  0  0  0  0
   -3.3923  -20.1851  -23.0230 C   0  0  0  0  0
   -1.3175  -20.9745  -23.1114 C   0  0  0  0  0
   -0.9696  -21.4121  -21.7183 C   0  0  0  0  0
   -0.3200  -22.7727  -21.9043 C   0  0  0  0  0
   -1.1728  -23.8677  -21.2725 C   0  0  0  0  0
   -0.3685  -21.8196  -23.9478 C   0  0  0  0  0
   -0.7141  -21.2404  -26.3710 C   0  0  0  0  0
   -1.9549  -22.8278  -27.0462 C   0  0  0  0  0
   -2.7780  -23.7129  -27.7287 C   0  0  0  0  0
   -2.9636  -24.9825  -25.7177 C   0  0  0  0  0
   -1.6669  -23.0426  -25.7457 C   0  0  0  0  0
   -2.9176  -16.4001  -21.7067 C   0  0  0  0  0
   -2.7119  -15.9486  -24.2072 C   0  0  0  0  0
   -0.6798  -16.4536  -24.5451 C   0  0  0  0  0
    0.5713  -16.7855  -25.0465 C   0  0  0  0  0
    1.2262  -17.3753  -22.8281 C   0  0  0  0  0
   -0.9345  -16.5912  -23.2252 C   0  0  0  0  0
   -4.5438   -6.9067  -19.1530 C   0  0  0  0  0
   -3.0670   -4.9517  -18.5804 C   0  0  0  0  0
   -1.3201   -5.8876  -17.8241 C   0  0  0  0  0
   -0.0810   -6.2340  -17.3065 C   0  0  0  0  0
   -0.7112   -8.5265  -17.5050 C   0  0  0  0  0
   -2.2031   -6.8525  -18.1611 C   0  0  0  0  0
   -8.2930   -0.7009  -18.7401 O   0  0  0  0  0
   -7.1612    0.2165  -16.5870 O   0  0  0  0  0
   -4.9287   -1.6244  -18.1963 O   0  0  0  0  0
   -5.7031   -3.8862  -19.8522 O   0  0  0  0  0
   -5.5583   -4.3604  -22.4399 O   0  0  0  0  0
   -7.9485   -4.4575  -21.3833 O   0  0  0  0  0
   -6.0814   -6.4246  -20.9004 O   0  0  0  0  0
   -3.8065  -11.0252  -19.3941 O   0  0  0  0  0
   -5.4143  -11.7837  -21.3609 O   0  0  0  0  0
   -3.6273  -14.0890  -22.1095 O   0  0  0  0  0
   -4.9754  -17.9879  -24.1084 O   0  0  0  0  0
   -5.1808  -20.4216  -25.0694 O   0  0  0  0  0
   -2.6512  -21.3098  -23.3833 O   0  0  0  0  0
   -2.3716  -24.0392  -21.9772 O   0  0  0  0  0
   -4.8615  -24.6350  -21.4395 O   0  0  0  0  0
   -3.8479  -22.6256  -20.1156 O   0  0  0  0  0
   -3.1271  -25.2386  -19.5835 O   0  0  0  0  0
   -0.1176  -23.0338  -23.2760 O   0  0  0  0  0
   -0.0436  -20.5251  -21.1721 O   0  0  0  0  0
   -2.9949  -19.1259  -25.6439 O   0  0  0  0  0
   -3.5958  -17.6340  -21.6762 O   0  0  0  0  0
   -6.2742  -15.4480  -21.2033 O   0  0  0  0  0
   -5.2831  -13.3443  -19.2699 O   0  0  0  0  0
   -4.5215   -8.3063  -18.9616 O   0  0  0  0  0
   -4.8554   -8.1273  -22.4704 O   0  0  0  0  0
   -3.8963    0.4140  -17.6497 N   0  0  0  0  0
   -2.3923    1.7519  -18.6864 N   0  0  0  0  0
   -0.0490    2.9817  -17.2825 N   0  0  0  0  0
   -0.9156    1.8114  -15.3422 N   0  0  0  0  0
   -2.8829    0.4747  -15.4555 N   0  0  0  0  0
   -0.8813  -22.0537  -25.2976 N   0  0  0  0  0
   -1.3683  -21.6954  -27.4773 N   0  0  0  0  0
   -3.1068  -23.5145  -29.0985 N   0  0  0  0  0
   -3.2719  -24.7866  -27.0409 N   0  0  0  0  0
   -2.1539  -24.1015  -25.0549 N   0  0  0  0  0
   -2.2080  -16.2634  -22.9825 N   0  0  0  0  0
   -1.7829  -16.0425  -25.1995 N   0  0  0  0  0
    0.8715  -16.6707  -26.4334 N   0  0  0  0  0
    1.5098  -17.2419  -24.1658 N   0  0  0  0  0
   -0.0116  -17.0530  -22.3450 N   0  0  0  0  0
   -3.3172   -6.2866  -18.6461 N   0  0  0  0  0
   -1.8335   -4.6690  -18.0767 N   0  0  0  0  0
    0.8770   -5.2405  -16.9554 N   0  0  0  0  0
    0.2002   -7.5615  -17.1564 N   0  0  0  0  0
   -1.9305   -8.1738  -18.0121 N   0  0  0  0  0
   -6.2946   -4.7623  -21.1793 P   0  0  0  0  0
   -4.4479  -12.3028  -20.3138 P   0  0  0  0  0
   -4.1846  -19.4452  -24.4882 P   0  0  0  0  0
   -3.5822  -24.1489  -20.7985 P   0  0  0  0  0
  1 46  1  0  0  0
  2  1  1  0  0  0
  2  3  1  0  0  0
  2 45  1  0  0  0
  3 43  1  0  0  0
  3  4  1  0  0  0
  4 44  1  0  0  0
  4  5  1  0  0  0
  5 45  1  0  0  0
  5 68  1  0  0  0
  7 69  1  0  0  0
  8 70  1  0  0  0
  8 71  1  0  0  0
  9 72  1  0  0  0
 10 68  1  0  0  0
 10  7  1  0  0  0
 11 49  1  0  0  0
 11 12  1  0  0  0
 12 13  1  0  0  0
 12 67  1  0  0  0
 13 14  1  0  0  0
 13 66  1  0  0  0
 14 50  1  0  0  0
 15 52  1  0  0  0
 16 52  1  0  0  0
 16 17  1  0  0  0
 17 18  1  0  0  0
 17 64  1  0  0  0
 18 19  1  0  0  0
 18 63  1  0  0  0
 19 53  1  0  0  0
 20 55  1  0  0  0
 21 55  1  0  0  0
 21 22  1  0  0  0
 22 23  1  0  0  0
 22 61  1  0  0  0
 23 24  1  0  0  0
 23 60  1  0  0  0
 24 56  1  0  0  0
 25 60  1  0  0  0
 25 73  1  0  0  0
 25 21  1  0  0  0
 27 74  1  0  0  0
 28 75  1  0  0  0
 28 76  1  0  0  0
 29 77  1  0  0  0
 30 73  1  0  0  0
 30 27  1  0  0  0
 31 63  1  0  0  0
 31 78  1  0  0  0
 31 16  1  0  0  0
 33 79  1  0  0  0
 34 80  1  0  0  0
 34 81  1  0  0  0
 35 82  1  0  0  0
 36 78  1  0  0  0
 36 33  1  0  0  0
 37 66  1  0  0  0
 37 83  1  0  0  0
 37 11  1  0  0  0
 39 84  1  0  0  0
 40 85  1  0  0  0
 40 86  1  0  0  0
 41 87  1  0  0  0
 42 83  1  0  0  0
 42 39  1  0  0  0
 68  6  1  0  0  0
 73 26  1  0  0  0
 78 32  1  0  0  0
 83 38  1  0  0  0
 88 46  1  0  0  0
 88 48  1  0  0  0
 88 49  1  0  0  0
 89 50  1  0  0  0
 89 15  1  0  0  0
 89 65  1  0  0  0
 90 53  1  0  0  0
 90 20  1  0  0  0
 90 62  1  0  0  0
 91 56  1  0  0  0
 91 58  1  0  0  0
 91 59  1  0  0  0
  6 69  2  0  0  0
  7  8  2  0  0  0
  9 71  2  0  0  0
 10 72  2  0  0  0
 26 74  2  0  0  0
 27 28  2  0  0  0
 29 76  2  0  0  0
 30 77  2  0  0  0
 32 79  2  0  0  0
 33 34  2  0  0  0
 35 81  2  0  0  0
 36 82  2  0  0  0
 38 84  2  0  0  0
 39 40  2  0  0  0
 41 86  2  0  0  0
 42 87  2  0  0  0
 88 47  2  0  0  0
 89 51  2  0  0  0
 90 54  2  0  0  0
 91 57  2  0  0  0
M  END
> <rmsd>
0.708822131

$$$$
CHEMBL4103815 PubChem-137657334


 86 92  0  0  0  0  0  0  0  0999 V2000
    1.8283    3.7681  -17.7963 O   0  0  0  0  0
    1.2035    3.2707  -15.3158 O   0  0  0  0  0
    3.2321    2.2487  -16.2276 O   0  0  0  0  0
    0.9300    1.2594  -16.9984 O   0  0  0  0  0
   -3.1621    3.7985  -17.7913 O   0  0  0  0  0
   -2.1038    7.1625  -11.3269 O   0  0  0  0  0
   -0.0160    8.3621  -10.3592 O   0  0  0  0  0
   -1.9978   11.8295  -10.0903 O   0  0  0  0  0
   -6.0184   10.0142  -11.8637 O   0  0  0  0  0
   -8.2746    9.3483  -13.0290 O   0  0  0  0  0
   -6.2008    8.3903  -13.9221 O   0  0  0  0  0
   -7.1070    7.4748  -11.6528 O   0  0  0  0  0
    1.4530   16.8572   -8.2560 O   0  0  0  0  0
    3.5941   16.9453   -9.7829 O   0  0  0  0  0
    3.9220   16.5535   -7.3836 O   0  0  0  0  0
    3.2681   18.9365   -8.1650 O   0  0  0  0  0
   -1.2275   16.3360   -7.8486 O   0  0  0  0  0
   -2.6709   15.3817   -5.8690 O   0  0  0  0  0
   -3.4972   17.3742   -7.0453 O   0  0  0  0  0
   -3.6854   15.0759   -8.2357 O   0  0  0  0  0
    1.3501   10.5744   -9.4037 O   0  0  0  0  0
    3.9356   10.5009   -9.8227 O   0  0  0  0  0
    2.4656   10.4756  -11.7722 O   0  0  0  0  0
    2.6745    8.3068  -10.3550 O   0  0  0  0  0
   -5.2501    2.3546  -18.3328 O   0  0  0  0  0
   -3.0835   -1.0194  -18.1413 O   0  0  0  0  0
   -6.3684   -6.3377  -19.5358 O   0  0  0  0  0
   -8.9606   -5.9748  -19.6695 O   0  0  0  0  0
   -8.0585   -8.1236  -20.4331 O   0  0  0  0  0
   -7.6970   -6.0397  -21.9479 O   0  0  0  0  0
   -3.9916   -5.9617  -17.9849 O   0  0  0  0  0
   -4.4708   -8.2173  -19.2911 O   0  0  0  0  0
   -2.2878   -7.9396  -18.2168 O   0  0  0  0  0
   -2.7553   -6.5986  -20.3840 O   0  0  0  0  0
   -6.5361    0.0089  -18.7083 O   0  0  0  0  0
   -7.5390    0.8925  -16.4575 O   0  0  0  0  0
   -9.0340   -0.3403  -17.9720 O   0  0  0  0  0
   -7.2471   -1.6886  -16.6301 O   0  0  0  0  0
    1.8222    2.6493  -16.5391 S   0  0  0  0  0
   -6.9213    8.8064  -12.6655 S   0  0  0  0  0
    3.1039   17.2865   -8.4071 S   0  0  0  0  0
   -2.7919   16.0552   -7.2128 S   0  0  0  0  0
    2.6358    9.9828  -10.3681 S   0  0  0  0  0
   -7.8161   -6.6398  -20.3841 S   0  0  0  0  0
   -3.3859   -7.2337  -18.9607 S   0  0  0  0  0
   -7.6318   -0.2541  -17.4262 S   0  0  0  0  0
   -0.4243    1.3121  -17.3441 C   0  0  0  0  0
   -1.1132    2.5287  -17.4326 C   0  0  0  0  0
   -2.4858    2.5715  -17.7361 C   0  0  0  0  0
   -2.5511    5.0348  -17.4367 C   0  0  0  0  0
   -2.6440    5.2837  -15.9569 C   0  0  0  0  0
   -2.4495    4.2262  -15.0561 C   0  0  0  0  0
   -2.4802    4.4416  -13.6807 C   0  0  0  0  0
   -2.7027    5.7433  -13.1814 C   0  0  0  0  0
   -2.8942    6.8038  -14.0800 C   0  0  0  0  0
   -2.8552    6.5863  -15.4595 C   0  0  0  0  0
   -3.0524    7.7510  -16.3763 C   0  0  0  0  0
   -2.8114    5.9881  -11.7086 C   0  0  0  0  0
   -2.7144    8.4209  -11.2017 C   0  0  0  0  0
   -1.9879    9.5320  -10.7061 C   0  0  0  0  0
   -0.6375    9.4552  -10.3071 C   0  0  0  0  0
    0.0147   10.6051   -9.8278 C   0  0  0  0  0
   -0.7186   11.8047   -9.7268 C   0  0  0  0  0
   -2.6419   10.7783  -10.5759 C   0  0  0  0  0
   -3.9835   10.9167  -10.9453 C   0  0  0  0  0
   -4.6911    9.8307  -11.4607 C   0  0  0  0  0
   -4.0557    8.5912  -11.5777 C   0  0  0  0  0
   -0.1117   13.0769   -9.2697 C   0  0  0  0  0
   -0.9318   14.0732   -8.7236 C   0  0  0  0  0
   -0.4083   15.3259   -8.3729 C   0  0  0  0  0
    0.9536   15.5912   -8.5802 C   0  0  0  0  0
    1.7797   14.5978   -9.1277 C   0  0  0  0  0
    1.2479   13.3576   -9.4770 C   0  0  0  0  0
   -2.2902    3.2682  -12.7735 C   0  0  0  0  0
   -3.1765    1.3594  -17.9722 C   0  0  0  0  0
   -4.5541    1.3040  -18.2580 C   0  0  0  0  0
   -5.1627    0.0622  -18.4731 C   0  0  0  0  0
   -4.3760   -1.1118  -18.4407 C   0  0  0  0  0
   -2.4684    0.1343  -17.9100 C   0  0  0  0  0
   -1.1082    0.1234  -17.5950 C   0  0  0  0  0
   -4.9254   -2.4622  -18.7223 C   0  0  0  0  0
   -4.2645   -3.5918  -18.2162 C   0  0  0  0  0
   -4.7125   -4.8845  -18.5065 C   0  0  0  0  0
   -5.8662   -5.0558  -19.2969 C   0  0  0  0  0
   -6.5203   -3.9264  -19.8137 C   0  0  0  0  0
   -6.0483   -2.6448  -19.5393 C   0  0  0  0  0
 39  1  1  0  0  0
 39  4  1  0  0  0
 40  9  1  0  0  0
 40 12  1  0  0  0
 41 13  1  0  0  0
 41 16  1  0  0  0
 42 17  1  0  0  0
 42 20  1  0  0  0
 43 21  1  0  0  0
 43 24  1  0  0  0
 44 27  1  0  0  0
 44 30  1  0  0  0
 45 31  1  0  0  0
 45 34  1  0  0  0
 46 35  1  0  0  0
 46 38  1  0  0  0
 47  4  1  0  0  0
 48 49  1  0  0  0
 49  5  1  0  0  0
 50  5  1  0  0  0
 50 51  1  0  0  0
 52 53  1  0  0  0
 54 55  1  0  0  0
 56 51  1  0  0  0
 57 56  1  0  0  0
 58 54  1  0  0  0
 58  6  1  0  0  0
 59  6  1  0  0  0
 60 61  1  0  0  0
 61 62  1  0  0  0
 62 21  1  0  0  0
 63  8  1  0  0  0
 63 68  1  0  0  0
 64  8  1  0  0  0
 64 60  1  0  0  0
 65 66  1  0  0  0
 66  9  1  0  0  0
 67 59  1  0  0  0
 69 70  1  0  0  0
 70 17  1  0  0  0
 71 72  1  0  0  0
 71 13  1  0  0  0
 73 68  1  0  0  0
 74 53  1  0  0  0
 75 76  1  0  0  0
 76 77  1  0  0  0
 77 35  1  0  0  0
 78 26  1  0  0  0
 78 81  1  0  0  0
 79 26  1  0  0  0
 79 75  1  0  0  0
 80 47  1  0  0  0
 82 83  1  0  0  0
 83 31  1  0  0  0
 84 85  1  0  0  0
 84 27  1  0  0  0
 86 81  1  0  0  0
 39  2  2  0  0  0
 39  3  2  0  0  0
 40 10  2  0  0  0
 40 11  2  0  0  0
 41 14  2  0  0  0
 41 15  2  0  0  0
 42 18  2  0  0  0
 42 19  2  0  0  0
 43 22  2  0  0  0
 43 23  2  0  0  0
 44 28  2  0  0  0
 44 29  2  0  0  0
 45 32  2  0  0  0
 45 33  2  0  0  0
 46 36  2  0  0  0
 46 37  2  0  0  0
 47 48  2  0  0  0
 49 75  2  0  0  0
 51 52  2  0  0  0
 53 54  2  0  0  0
 55 56  2  0  0  0
 59 60  2  0  0  0
 61  7  2  0  0  0
 62 63  2  0  0  0
 64 65  2  0  0  0
 66 67  2  0  0  0
 68 69  2  0  0  0
 70 71  2  0  0  0
 72 73  2  0  0  0
 76 25  2  0  0  0
 77 78  2  0  0  0
 79 80  2  0  0  0
 81 82  2  0  0  0
 83 84  2  0  0  0
 85 86  2  0  0  0
M  CHG  8   1  -1  12  -1  16  -1  20  -1  24  -1  30  -1  34  -1  38  -1
M  END
> <rmsd>
0.679024696

$$$$
CHEMBL4116951 PubChem-137630575


 86 92  0  0  0  0  0  0  0  0999 V2000
    1.8283    3.7681  -17.7963 O   0  0  0  0  0
    1.2035    3.2707  -15.3158 O   0  0  0  0  0
    3.2321    2.2487  -16.2276 O   0  0  0  0  0
    0.9300    1.2594  -16.9984 O   0  0  0  0  0
   -3.1621    3.7985  -17.7913 O   0  0  0  0  0
   -2.1038    7.1625  -11.3269 O   0  0  0  0  0
   -0.0160    8.3621  -10.3592 O   0  0  0  0  0
   -1.9978   11.8295  -10.0903 O   0  0  0  0  0
   -6.0184   10.0142  -11.8637 O   0  0  0  0  0
   -8.2746    9.3483  -13.0290 O   0  0  0  0  0
   -6.2008    8.3903  -13.9221 O   0  0  0  0  0
   -7.1070    7.4748  -11.6528 O   0  0  0  0  0
    1.4530   16.8572   -8.2560 O   0  0  0  0  0
    3.5941   16.9453   -9.7829 O   0  0  0  0  0
    3.9220   16.5535   -7.3836 O   0  0  0  0  0
    3.2681   18.9365   -8.1650 O   0  0  0  0  0
   -1.2275   16.3360   -7.8486 O   0  0  0  0  0
   -2.6709   15.3817   -5.8690 O   0  0  0  0  0
   -3.4972   17.3742   -7.0453 O   0  0  0  0  0
   -3.6854   15.0759   -8.2357 O   0  0  0  0  0
    1.3501   10.5744   -9.4037 O   0  0  0  0  0
    3.9356   10.5009   -9.8227 O   0  0  0  0  0
    2.4656   10.4756  -11.7722 O   0  0  0  0  0
    2.6745    8.3068  -10.3550 O   0  0  0  0  0
   -5.2501    2.3546  -18.3328 O   0  0  0  0  0
   -3.0835   -1.0194  -18.1413 O   0  0  0  0  0
   -6.3684   -6.3377  -19.5358 O   0  0  0  0  0
   -8.9606   -5.9748  -19.6695 O   0  0  0  0  0
   -8.0585   -8.1236  -20.4331 O   0  0  0  0  0
   -7.6970   -6.0397  -21.9479 O   0  0  0  0  0
   -3.9916   -5.9617  -17.9849 O   0  0  0  0  0
   -4.4708   -8.2173  -19.2911 O   0  0  0  0  0
   -2.2878   -7.9396  -18.2168 O   0  0  0  0  0
   -2.7553   -6.5986  -20.3840 O   0  0  0  0  0
   -6.5361    0.0089  -18.7083 O   0  0  0  0  0
   -7.5390    0.8925  -16.4575 O   0  0  0  0  0
   -9.0340   -0.3403  -17.9720 O   0  0  0  0  0
   -7.2471   -1.6886  -16.6301 O   0  0  0  0  0
    1.8222    2.6493  -16.5391 S   0  0  0  0  0
   -6.9213    8.8064  -12.6655 S   0  0  0  0  0
    3.1039   17.2865   -8.4071 S   0  0  0  0  0
   -2.7919   16.0552   -7.2128 S   0  0  0  0  0
    2.6358    9.9828  -10.3681 S   0  0  0  0  0
   -7.8161   -6.6398  -20.3841 S   0  0  0  0  0
   -3.3859   -7.2337  -18.9607 S   0  0  0  0  0
   -7.6318   -0.2541  -17.4262 S   0  0  0  0  0
   -0.4243    1.3121  -17.3441 C   0  0  0  0  0
   -1.1132    2.5287  -17.4326 C   0  0  0  0  0
   -2.4858    2.5715  -17.7361 C   0  0  0  0  0
   -2.5511    5.0348  -17.4367 C   0  0  0  0  0
   -2.6440    5.2837  -15.9569 C   0  0  0  0  0
   -2.4495    4.2262  -15.0561 C   0  0  0  0  0
   -2.4802    4.4416  -13.6807 C   0  0  0  0  0
   -2.7027    5.7433  -13.1814 C   0  0  0  0  0
   -2.8942    6.8038  -14.0800 C   0  0  0  0  0
   -2.8552    6.5863  -15.4595 C   0  0  0  0  0
   -3.0524    7.7510  -16.3763 C   0  0  0  0  0
   -2.8114    5.9881  -11.7086 C   0  0  0  0  0
   -2.7144    8.4209  -11.2017 C   0  0  0  0  0
   -1.9879    9.5320  -10.7061 C   0  0  0  0  0
   -0.6375    9.4552  -10.3071 C   0  0  0  0  0
    0.0147   10.6051   -9.8278 C   0  0  0  0  0
   -0.7186   11.8047   -9.7268 C   0  0  0  0  0
   -2.6419   10.7783  -10.5759 C   0  0  0  0  0
   -3.9835   10.9167  -10.9453 C   0  0  0  0  0
   -4.6911    9.8307  -11.4607 C   0  0  0  0  0
   -4.0557    8.5912  -11.5777 C   0  0  0  0  0
   -0.1117   13.0769   -9.2697 C   0  0  0  0  0
   -0.9318   14.0732   -8.7236 C   0  0  0  0  0
   -0.4083   15.3259   -8.3729 C   0  0  0  0  0
    0.9536   15.5912   -8.5802 C   0  0  0  0  0
    1.7797   14.5978   -9.1277 C   0  0  0  0  0
    1.2479   13.3576   -9.4770 C   0  0  0  0  0
   -2.2902    3.2682  -12.7735 C   0  0  0  0  0
   -3.1765    1.3594  -17.9722 C   0  0  0  0  0
   -4.5541    1.3040  -18.2580 C   0  0  0  0  0
   -5.1627    0.0622  -18.4731 C   0  0  0  0  0
   -4.3760   -1.1118  -18.4407 C   0  0  0  0  0
   -2.4684    0.1343  -17.9100 C   0  0  0  0  0
   -1.1082    0.1234  -17.5950 C   0  0  0  0  0
   -4.9254   -2.4622  -18.7223 C   0  0  0  0  0
   -4.2645   -3.5918  -18.2162 C   0  0  0  0  0
   -4.7125   -4.8845  -18.5065 C   0  0  0  0  0
   -5.8662   -5.0558  -19.2969 C   0  0  0  0  0
   -6.5203   -3.9264  -19.8137 C   0  0  0  0  0
   -6.0483   -2.6448  -19.5393 C   0  0  0  0  0
 39  1  1  0  0  0
 39  4  1  0  0  0
 40  9  1  0  0  0
 40 12  1  0  0  0
 41 13  1  0  0  0
 41 16  1  0  0  0
 42 17  1  0  0  0
 42 20  1  0  0  0
 43 21  1  0  0  0
 43 24  1  0  0  0
 44 27  1  0  0  0
 44 30  1  0  0  0
 45 31  1  0  0  0
 45 34  1  0  0  0
 46 35  1  0  0  0
 46 38  1  0  0  0
 47  4  1  0  0  0
 48 49  1  0  0  0
 49  5  1  0  0  0
 50  5  1  0  0  0
 50 51  1  0  0  0
 52 53  1  0  0  0
 54 55  1  0  0  0
 56 51  1  0  0  0
 57 56  1  0  0  0
 58 54  1  0  0  0
 58  6  1  0  0  0
 59  6  1  0  0  0
 60 61  1  0  0  0
 61 62  1  0  0  0
 62 21  1  0  0  0
 63  8  1  0  0  0
 63 68  1  0  0  0
 64  8  1  0  0  0
 64 60  1  0  0  0
 65 66  1  0  0  0
 66  9  1  0  0  0
 67 59  1  0  0  0
 69 70  1  0  0  0
 70 17  1  0  0  0
 71 72  1  0  0  0
 71 13  1  0  0  0
 73 68  1  0  0  0
 74 53  1  0  0  0
 75 76  1  0  0  0
 76 77  1  0  0  0
 77 35  1  0  0  0
 78 26  1  0  0  0
 78 81  1  0  0  0
 79 26  1  0  0  0
 79 75  1  0  0  0
 80 47  1  0  0  0
 82 83  1  0  0  0
 83 31  1  0  0  0
 84 85  1  0  0  0
 84 27  1  0  0  0
 86 81  1  0  0  0
 39  2  2  0  0  0
 39  3  2  0  0  0
 40 10  2  0  0  0
 40 11  2  0  0  0
 41 14  2  0  0  0
 41 15  2  0  0  0
 42 18  2  0  0  0
 42 19  2  0  0  0
 43 22  2  0  0  0
 43 23  2  0  0  0
 44 28  2  0  0  0
 44 29  2  0  0  0
 45 32  2  0  0  0
 45 33  2  0  0  0
 46 36  2  0  0  0
 46 37  2  0  0  0
 47 48  2  0  0  0
 49 75  2  0  0  0
 51 52  2  0  0  0
 53 54  2  0  0  0
 55 56  2  0  0  0
 59 60  2  0  0  0
 61  7  2  0  0  0
 62 63  2  0  0  0
 64 65  2  0  0  0
 66 67  2  0  0  0
 68 69  2  0  0  0
 70 71  2  0  0  0
 72 73  2  0  0  0
 76 25  2  0  0  0
 77 78  2  0  0  0
 79 80  2  0  0  0
 81 82  2  0  0  0
 83 84  2  0  0  0
 85 86  2  0  0  0
M  END
> <rmsd>
0.679024696

$$$$
CHEMBL2057249 PubChem-70690493


 91102  0  0  0  0  0  0  0  0999 V2000
   -6.3394   -4.8449  -21.8304 P   0  0  0  0  0
   -1.0558   -8.8103  -16.7721 P   0  0  0  0  0
   -6.9563    2.6548  -16.9099 P   0  0  0  0  0
  -11.9683    5.8013  -22.7801 P   0  0  0  0  0
   -5.9915   -4.3369  -23.2104 O   0  0  0  0  0
   -7.7488   -5.7820  -21.9331 O   0  0  0  0  0
   -5.0496   -5.7951  -21.2630 O   0  0  0  0  0
   -1.8708   -7.7431  -17.8099 O   0  0  0  0  0
   -1.7453   -8.8467  -15.4270 O   0  0  0  0  0
    0.5395   -8.2822  -16.5723 O   0  0  0  0  0
   -1.0360  -10.3681  -17.4396 O   0  0  0  0  0
   -4.8326   -8.5880  -19.6715 O   0  0  0  0  0
   -3.2549   -5.4413  -19.4244 O   0  0  0  0  0
   -7.1813   -3.8161  -19.5361 O   0  0  0  0  0
   -9.0824   -0.4471  -18.2335 O   0  0  0  0  0
   -6.9834    1.0537  -16.3468 O   0  0  0  0  0
   -7.4172    3.5705  -15.7984 O   0  0  0  0  0
   -7.9934    2.8244  -18.2443 O   0  0  0  0  0
  -10.3893    3.1842  -20.2316 O   0  0  0  0  0
  -11.3353    5.3550  -21.2580 O   0  0  0  0  0
  -10.8876    5.9583  -23.8312 O   0  0  0  0  0
  -13.0621    4.6171  -23.2885 O   0  0  0  0  0
  -11.9570    8.3575  -22.1594 O   0  0  0  0  0
  -13.5187   12.1161  -22.9251 O   0  0  0  0  0
  -10.6336   13.6018  -21.6678 O   0  0  0  0  0
  -10.8854   10.7512  -23.3875 O   0  0  0  0  0
   -8.4487    6.0759  -19.7159 O   0  0  0  0  0
   -5.3702    3.0611  -17.3411 O   0  0  0  0  0
   -5.9401   -1.8044  -18.1111 O   0  0  0  0  0
   -5.4303   -6.2815  -20.0032 C   0  0  0  0  0
   -4.2424   -6.3671  -19.0832 C   0  0  0  0  0
   -3.7459   -7.7762  -19.2973 C   0  0  0  0  0
   -3.1245   -8.3233  -18.0237 C   0  0  0  0  0
   -5.8515   -7.7334  -20.1439 C   0  0  0  0  0
   -8.2629   -8.4051  -19.9541 C   0  0  0  0  0
   -8.6146   -8.2550  -17.8644 C   0  0  0  0  0
   -9.1047   -8.2415  -16.5670 C   0  0  0  0  0
   -6.9534   -7.5102  -15.8348 C   0  0  0  0  0
   -7.3330   -7.9015  -18.1039 C   0  0  0  0  0
   -6.6324   -3.4080  -20.7545 C   0  0  0  0  0
   -7.9303   -2.7150  -19.1108 C   0  0  0  0  0
   -7.3015   -2.0818  -17.8691 C   0  0  0  0  0
   -8.0089   -0.8021  -17.4124 C   0  0  0  0  0
   -6.9444    0.2471  -17.4879 C   0  0  0  0  0
   -7.6047    4.0134  -18.8695 C   0  0  0  0  0
   -8.8223    4.7707  -19.3677 C   0  0  0  0  0
   -9.3925    4.0975  -20.5914 C   0  0  0  0  0
   -9.9443    5.2437  -21.3973 C   0  0  0  0  0
  -12.8479    7.3802  -22.6036 C   0  0  0  0  0
  -12.6618    9.5542  -22.2801 C   0  0  0  0  0
  -11.6890   10.7238  -22.2383 C   0  0  0  0  0
  -12.3771   12.0683  -22.1203 C   0  0  0  0  0
  -11.3508   12.9943  -22.6966 C   0  0  0  0  0
  -10.4252   12.0809  -23.4860 C   0  0  0  0  0
  -10.8683   11.8614  -25.9729 C   0  0  0  0  0
   -9.9984   13.6488  -26.7171 C   0  0  0  0  0
   -9.5172   14.7208  -27.4544 C   0  0  0  0  0
   -8.7086   15.6698  -25.4185 C   0  0  0  0  0
   -9.8317   13.6245  -25.3775 C   0  0  0  0  0
   -9.2847    6.4630  -20.7802 C   0  0  0  0  0
   -8.7313    8.4497  -22.2222 C   0  0  0  0  0
   -7.0405    7.7588  -23.3052 C   0  0  0  0  0
   -5.9338    7.5691  -24.1191 C   0  0  0  0  0
   -5.7122    5.3827  -23.1860 C   0  0  0  0  0
   -7.4454    6.7701  -22.4795 C   0  0  0  0  0
   -5.6709   -0.5633  -17.5155 C   0  0  0  0  0
   -4.6566    0.4880  -19.5799 C   0  0  0  0  0
   -2.8212    1.2315  -18.8115 C   0  0  0  0  0
   -1.6096    1.8562  -18.5572 C   0  0  0  0  0
   -1.8020    1.1534  -16.2854 C   0  0  0  0  0
   -3.4765    0.6052  -17.8104 C   0  0  0  0  0
   -7.0910   -7.9835  -19.4182 N   0  0  0  0  0
   -9.2362   -8.5785  -19.0133 N   0  0  0  0  0
  -10.4518   -8.6039  -16.2763 N   0  0  0  0  0
   -8.2512   -7.8673  -15.5659 N   0  0  0  0  0
   -6.4816   -7.5232  -17.1204 N   0  0  0  0  0
  -10.3737   12.5050  -24.8838 N   0  0  0  0  0
  -10.6532   12.5490  -27.1307 N   0  0  0  0  0
   -9.6769   14.7799  -28.8678 N   0  0  0  0  0
   -8.8712   15.7194  -26.7809 N   0  0  0  0  0
   -9.1938   14.6100  -24.7003 N   0  0  0  0  0
   -8.5119    7.1844  -21.7840 N   0  0  0  0  0
   -7.8353    8.8393  -23.1720 N   0  0  0  0  0
   -5.4798    8.5871  -25.0047 N   0  0  0  0  0
   -5.2865    6.3679  -24.0437 N   0  0  0  0  0
   -6.8051    5.5810  -22.3871 N   0  0  0  0  0
   -4.6384    0.1342  -18.2692 N   0  0  0  0  0
   -3.5369    1.1771  -19.9487 N   0  0  0  0  0
   -0.9072    2.5537  -19.5781 N   0  0  0  0  0
   -1.1219    1.8037  -17.2839 N   0  0  0  0  0
   -3.0000    0.5481  -16.5423 N   0  0  0  0  0
  1  6  1  0  0  0
  1  7  1  0  0  0
  1 40  1  0  0  0
  2  8  1  0  0  0
  2 10  1  0  0  0
  2 11  1  0  0  0
  3 16  1  0  0  0
  3 18  1  0  0  0
  3 28  1  0  0  0
  4 20  1  0  0  0
  4 22  1  0  0  0
  4 49  1  0  0  0
 30  7  1  0  0  0
 30 31  1  0  0  0
 31 32  1  0  0  0
 31 13  1  0  0  0
 32 33  1  0  0  0
 32 12  1  0  0  0
 33  8  1  0  0  0
 34 12  1  0  0  0
 34 72  1  0  0  0
 34 30  1  0  0  0
 36 73  1  0  0  0
 37 74  1  0  0  0
 37 75  1  0  0  0
 38 76  1  0  0  0
 39 72  1  0  0  0
 39 36  1  0  0  0
 40 14  1  0  0  0
 41 14  1  0  0  0
 42 41  1  0  0  0
 42 43  1  0  0  0
 42 29  1  0  0  0
 43 15  1  0  0  0
 43 44  1  0  0  0
 44 16  1  0  0  0
 44 66  1  0  0  0
 45 18  1  0  0  0
 46 45  1  0  0  0
 46 47  1  0  0  0
 46 27  1  0  0  0
 47 19  1  0  0  0
 47 48  1  0  0  0
 48 20  1  0  0  0
 48 60  1  0  0  0
 49 23  1  0  0  0
 50 23  1  0  0  0
 51 50  1  0  0  0
 51 52  1  0  0  0
 51 26  1  0  0  0
 52 24  1  0  0  0
 52 53  1  0  0  0
 53 25  1  0  0  0
 53 54  1  0  0  0
 54 26  1  0  0  0
 54 77  1  0  0  0
 56 78  1  0  0  0
 57 79  1  0  0  0
 57 80  1  0  0  0
 58 81  1  0  0  0
 59 77  1  0  0  0
 59 56  1  0  0  0
 60 27  1  0  0  0
 60 82  1  0  0  0
 62 83  1  0  0  0
 63 84  1  0  0  0
 63 85  1  0  0  0
 64 86  1  0  0  0
 65 82  1  0  0  0
 65 62  1  0  0  0
 66 29  1  0  0  0
 66 87  1  0  0  0
 68 88  1  0  0  0
 69 89  1  0  0  0
 69 90  1  0  0  0
 70 91  1  0  0  0
 71 87  1  0  0  0
 71 68  1  0  0  0
 72 35  1  0  0  0
 77 55  1  0  0  0
 82 61  1  0  0  0
 87 67  1  0  0  0
  1  5  2  0  0  0
  2  9  2  0  0  0
  3 17  2  0  0  0
  4 21  2  0  0  0
 35 73  2  0  0  0
 36 37  2  0  0  0
 38 75  2  0  0  0
 39 76  2  0  0  0
 55 78  2  0  0  0
 56 57  2  0  0  0
 58 80  2  0  0  0
 59 81  2  0  0  0
 61 83  2  0  0  0
 62 63  2  0  0  0
 64 85  2  0  0  0
 65 86  2  0  0  0
 67 88  2  0  0  0
 68 69  2  0  0  0
 70 90  2  0  0  0
 71 91  2  0  0  0
M  END
> <rmsd>
0.590076506

$$$$
CHEMBL2059662 PubChem-70686444


 91102  0  0  0  0  0  0  0  0999 V2000
   -0.9632   14.6162  -17.7370 P   0  0  0  0  0
   -4.1813   20.8783  -21.5317 P   0  0  0  0  0
   -4.4094    6.7766  -17.1352 P   0  0  0  0  0
   -7.3632    0.0114  -17.8744 P   0  0  0  0  0
   -1.1504   15.4304  -16.4730 O   0  0  0  0  0
    0.6794   14.2805  -17.9540 O   0  0  0  0  0
   -1.5598   15.4555  -19.0874 O   0  0  0  0  0
   -3.6711   20.1473  -20.0854 O   0  0  0  0  0
   -3.9884   19.9207  -22.6851 O   0  0  0  0  0
   -5.8225   21.2648  -21.4022 O   0  0  0  0  0
   -3.3027   22.2934  -21.8182 O   0  0  0  0  0
   -0.5559   18.3916  -20.6092 O   0  0  0  0  0
   -3.4766   17.1538  -19.1574 O   0  0  0  0  0
   -1.8262   12.3335  -18.7521 O   0  0  0  0  0
   -4.4323    9.1284  -20.8376 O   0  0  0  0  0
   -3.5673    8.1893  -17.5699 O   0  0  0  0  0
   -5.8902    7.0835  -17.0418 O   0  0  0  0  0
   -4.1024    5.5036  -18.2287 O   0  0  0  0  0
   -7.6383    3.9103  -18.0343 O   0  0  0  0  0
   -7.2264    1.4559  -18.7572 O   0  0  0  0  0
   -8.8183   -0.3927  -17.8106 O   0  0  0  0  0
   -6.7820    0.2032  -16.2955 O   0  0  0  0  0
   -6.8801   -1.4368  -20.0236 O   0  0  0  0  0
   -7.7468   -5.3882  -22.4186 O   0  0  0  0  0
   -7.0370   -5.7240  -18.9955 O   0  0  0  0  0
   -5.5660   -3.7163  -20.9599 O   0  0  0  0  0
   -4.6742    3.2712  -19.8427 O   0  0  0  0  0
   -3.8624    6.2929  -15.6092 O   0  0  0  0  0
   -1.5554    9.5808  -19.4191 O   0  0  0  0  0
   -1.1039   16.7726  -18.9561 C   0  0  0  0  0
   -2.2302   17.7760  -19.0586 C   0  0  0  0  0
   -1.9253   18.5239  -20.3375 C   0  0  0  0  0
   -2.2853   19.9962  -20.2058 C   0  0  0  0  0
   -0.1980   17.1246  -20.1200 C   0  0  0  0  0
    2.1938   16.3488  -20.2070 C   0  0  0  0  0
    3.1176   17.5924  -18.7536 C   0  0  0  0  0
    3.9638   18.2850  -17.8991 C   0  0  0  0  0
    2.0757   19.5604  -17.1865 C   0  0  0  0  0
    1.8042   17.8979  -18.7976 C   0  0  0  0  0
   -1.8731   13.0558  -17.5600 C   0  0  0  0  0
   -2.8733   11.4204  -18.6309 C   0  0  0  0  0
   -2.7367   10.3127  -19.6628 C   0  0  0  0  0
   -3.9426    9.3995  -19.5590 C   0  0  0  0  0
   -3.3976    8.1427  -18.9595 C   0  0  0  0  0
   -5.1312    5.5331  -19.1765 C   0  0  0  0  0
   -5.6903    4.1348  -19.4022 C   0  0  0  0  0
   -6.2851    3.5734  -18.1358 C   0  0  0  0  0
   -6.0728    2.0905  -18.2825 C   0  0  0  0  0
   -6.4208   -1.2939  -18.7108 C   0  0  0  0  0
   -7.5237   -2.6769  -20.0383 C   0  0  0  0  0
   -6.9550   -3.5501  -21.1450 C   0  0  0  0  0
   -7.6364   -4.9003  -21.1163 C   0  0  0  0  0
   -6.6796   -5.7545  -20.3474 C   0  0  0  0  0
   -5.3442   -5.0560  -20.5801 C   0  0  0  0  0
   -4.0052   -4.0950  -18.6504 C   0  0  0  0  0
   -3.1558   -5.8477  -17.8044 C   0  0  0  0  0
   -2.4894   -6.8125  -17.0634 C   0  0  0  0  0
   -3.3992   -8.4639  -18.5247 C   0  0  0  0  0
   -3.9106   -6.2144  -18.8631 C   0  0  0  0  0
   -4.9731    1.9940  -19.3277 C   0  0  0  0  0
   -3.1405    0.2788  -19.1840 C   0  0  0  0  0
   -2.0016    0.9712  -17.5324 C   0  0  0  0  0
   -1.1072    1.1849  -16.4918 C   0  0  0  0  0
   -2.3798    3.1123  -15.8883 C   0  0  0  0  0
   -3.0349    1.8192  -17.7178 C   0  0  0  0  0
   -1.9285    8.2263  -19.3276 C   0  0  0  0  0
   -0.5139    7.9973  -17.2339 C   0  0  0  0  0
    0.1011    5.9702  -17.3526 C   0  0  0  0  0
    0.6391    4.7014  -17.1908 C   0  0  0  0  0
   -0.4396    4.0593  -19.2211 C   0  0  0  0  0
   -0.6746    6.2407  -18.4256 C   0  0  0  0  0
    1.1978   17.1248  -19.7063 N   0  0  0  0  0
    3.4025   16.6113  -19.6321 N   0  0  0  0  0
    5.3603   18.0039  -17.8409 N   0  0  0  0  0
    3.4163   19.2653  -17.1226 N   0  0  0  0  0
    1.2544   18.8731  -18.0369 N   0  0  0  0  0
   -4.4596   -5.1263  -19.4144 N   0  0  0  0  0
   -3.1900   -4.5114  -17.6391 N   0  0  0  0  0
   -1.6935   -6.4649  -15.9370 N   0  0  0  0  0
   -2.6275   -8.1159  -17.4446 N   0  0  0  0  0
   -4.0544   -7.5059  -19.2489 N   0  0  0  0  0
   -3.7709    1.4003  -18.7536 N   0  0  0  0  0
   -2.0339   -0.0172  -18.4440 N   0  0  0  0  0
   -0.0074    0.3098  -16.2656 N   0  0  0  0  0
   -1.3211    2.2645  -15.6786 N   0  0  0  0  0
   -3.2525    2.8927  -16.9199 N   0  0  0  0  0
   -1.0768    7.5143  -18.3727 N   0  0  0  0  0
    0.2247    7.0599  -16.5735 N   0  0  0  0  0
    1.4604    4.3810  -16.0739 N   0  0  0  0  0
    0.3550    3.7613  -18.1409 N   0  0  0  0  0
   -0.9671    5.3138  -19.3721 N   0  0  0  0  0
  1  6  1  0  0  0
  1  7  1  0  0  0
  1 40  1  0  0  0
  2  8  1  0  0  0
  2 10  1  0  0  0
  2 11  1  0  0  0
  3 16  1  0  0  0
  3 18  1  0  0  0
  3 28  1  0  0  0
  4 20  1  0  0  0
  4 22  1  0  0  0
  4 49  1  0  0  0
 30  7  1  0  0  0
 30 31  1  0  0  0
 31 32  1  0  0  0
 31 13  1  0  0  0
 32 33  1  0  0  0
 32 12  1  0  0  0
 33  8  1  0  0  0
 34 12  1  0  0  0
 34 72  1  0  0  0
 34 30  1  0  0  0
 36 73  1  0  0  0
 37 74  1  0  0  0
 37 75  1  0  0  0
 38 76  1  0  0  0
 39 72  1  0  0  0
 39 36  1  0  0  0
 40 14  1  0  0  0
 41 14  1  0  0  0
 42 41  1  0  0  0
 42 43  1  0  0  0
 42 29  1  0  0  0
 43 15  1  0  0  0
 43 44  1  0  0  0
 44 16  1  0  0  0
 44 66  1  0  0  0
 45 18  1  0  0  0
 46 45  1  0  0  0
 46 47  1  0  0  0
 46 27  1  0  0  0
 47 19  1  0  0  0
 47 48  1  0  0  0
 48 20  1  0  0  0
 48 60  1  0  0  0
 49 23  1  0  0  0
 50 23  1  0  0  0
 51 50  1  0  0  0
 51 52  1  0  0  0
 51 26  1  0  0  0
 52 24  1  0  0  0
 52 53  1  0  0  0
 53 25  1  0  0  0
 53 54  1  0  0  0
 54 26  1  0  0  0
 54 77  1  0  0  0
 56 78  1  0  0  0
 57 79  1  0  0  0
 57 80  1  0  0  0
 58 81  1  0  0  0
 59 77  1  0  0  0
 59 56  1  0  0  0
 60 27  1  0  0  0
 60 82  1  0  0  0
 62 83  1  0  0  0
 63 84  1  0  0  0
 63 85  1  0  0  0
 64 86  1  0  0  0
 65 82  1  0  0  0
 65 62  1  0  0  0
 66 29  1  0  0  0
 66 87  1  0  0  0
 68 88  1  0  0  0
 69 89  1  0  0  0
 69 90  1  0  0  0
 70 91  1  0  0  0
 71 87  1  0  0  0
 71 68  1  0  0  0
 72 35  1  0  0  0
 77 55  1  0  0  0
 82 61  1  0  0  0
 87 67  1  0  0  0
  1  5  2  0  0  0
  2  9  2  0  0  0
  3 17  2  0  0  0
  4 21  2  0  0  0
 35 73  2  0  0  0
 36 37  2  0  0  0
 38 75  2  0  0  0
 39 76  2  0  0  0
 55 78  2  0  0  0
 56 57  2  0  0  0
 58 80  2  0  0  0
 59 81  2  0  0  0
 61 83  2  0  0  0
 62 63  2  0  0  0
 64 85  2  0  0  0
 65 86  2  0  0  0
 67 88  2  0  0  0
 68 69  2  0  0  0
 70 90  2  0  0  0
 71 91  2  0  0  0
M  END
> <rmsd>
0.611367941

$$$$
CHEMBL1784900 PubChem-53309242 PubChem-53310259


 42 44  0  0  0  0  0  0  0  0999 V2000
   -3.0930  -13.3639  -20.6472 O   0  0  0  0  0
   -4.4581   -7.4958  -19.4146 O   0  0  0  0  0
   -6.1842   -5.2884  -19.4676 O   0  0  0  0  0
   -7.8338   -5.4102  -21.5013 O   0  0  0  0  0
   -5.3396   -5.9098  -22.0300 O   0  0  0  0  0
   -6.1860   -3.3443  -21.4857 O   0  0  0  0  0
   -6.9674   -2.6147  -19.0778 O   0  0  0  0  0
   -8.8656   -2.9072  -20.8681 O   0  0  0  0  0
   -7.0451   -0.7900  -20.9683 O   0  0  0  0  0
   -8.0533    1.5861  -20.5274 O   0  0  0  0  0
   -9.7763   -0.2970  -20.9676 O   0  0  0  0  0
   -8.4020   -0.1672  -18.5756 O   0  0  0  0  0
   -6.9984    0.1346  -16.3926 O   0  0  0  0  0
   -7.1977    2.2466  -17.9094 O   0  0  0  0  0
   -5.5921    0.0718  -18.6209 O   0  0  0  0  0
   -1.5870    3.3581  -15.5456 O   0  0  0  0  0
   -3.8274    3.4598  -15.2205 O   0  0  0  0  0
   -2.4636   -5.8931  -17.0548 O   0  0  0  0  0
   -2.0840   -8.3803  -17.7420 O   0  0  0  0  0
   -1.7973   -9.1955  -21.8513 O   0  0  0  0  0
   -3.1245  -12.1216  -20.4482 C   0  0  0  0  0
   -3.8731  -11.6040  -19.3960 C   0  0  0  0  0
   -3.8854  -10.2235  -19.2109 C   0  0  0  0  0
   -3.1920   -7.9513  -19.8269 C   0  0  0  0  0
   -4.2321   -6.3638  -18.6030 C   0  0  0  0  0
   -4.8122   -5.1229  -19.2624 C   0  0  0  0  0
   -4.3277    0.5476  -18.2582 C   0  0  0  0  0
   -3.2038    0.0589  -18.9309 C   0  0  0  0  0
   -1.9253    0.5184  -18.5983 C   0  0  0  0  0
   -1.7634    1.4723  -17.5889 C   0  0  0  0  0
   -2.8803    1.9724  -16.9040 C   0  0  0  0  0
   -4.1580    1.5037  -17.2440 C   0  0  0  0  0
   -2.7419   -6.1806  -18.3941 C   0  0  0  0  0
   -2.1493   -7.4940  -18.8238 C   0  0  0  0  0
   -2.4527   -9.9397  -21.0714 C   0  0  0  0  0
   -3.1825   -9.4040  -20.0452 N   0  0  0  0  0
   -2.7237    2.9538  -15.8708 N   0  0  0  0  0
   -2.4305  -11.2855  -21.2615 N   0  0  0  0  0
   -6.4320   -4.9897  -21.1202 P   0  0  0  0  0
   -7.2721   -2.4254  -20.5480 P   0  0  0  0  0
   -8.2992    0.1181  -20.2538 P   0  0  0  0  0
   -7.0495    0.5614  -17.8415 P   0  0  0  0  0
 21 22  1  0  0  0
 23 36  1  0  0  0
 24 36  1  0  0  0
 24  2  1  0  0  0
 25  2  1  0  0  0
 25 26  1  0  0  0
 25 33  1  0  0  0
 26  3  1  0  0  0
 27 15  1  0  0  0
 28 29  1  0  0  0
 30 31  1  0  0  0
 31 37  1  0  0  0
 32 27  1  0  0  0
 33 18  1  0  0  0
 33 34  1  0  0  0
 34 19  1  0  0  0
 34 24  1  0  0  0
 35 38  1  0  0  0
 36 35  1  0  0  0
 37 17  1  0  0  0
 38 21  1  0  0  0
 39  3  1  0  0  0
 39  5  1  0  0  0
 39  6  1  0  0  0
 40  6  1  0  0  0
 40  8  1  0  0  0
 40  9  1  0  0  0
 41  9  1  0  0  0
 41 11  1  0  0  0
 41 12  1  0  0  0
 42 12  1  0  0  0
 42 14  1  0  0  0
 42 15  1  0  0  0
 21  1  2  0  0  0
 22 23  2  0  0  0
 27 28  2  0  0  0
 29 30  2  0  0  0
 31 32  2  0  0  0
 35 20  2  0  0  0
 37 16  2  0  0  0
 39  4  2  0  0  0
 40  7  2  0  0  0
 41 10  2  0  0  0
 42 13  2  0  0  0
M  CHG  2  37   1  17  -1
M  END
> <rmsd>
0.576048851

$$$$
CHEMBL2332032


 39 40  0  0  0  0  0  0  0  0999 V2000
   -6.4766   -3.7403  -19.2009 C   0  0  0  0  0
   -6.0627   -4.9289  -18.3243 C   0  0  0  0  0
   -4.5326   -5.0238  -18.2629 C   0  0  0  0  0
   -3.9439   -3.7234  -17.7011 C   0  0  0  0  0
   -4.3634   -2.5382  -18.5796 C   0  0  0  0  0
   -5.8904   -2.4297  -18.6619 C   0  0  0  0  0
   -3.0340   -0.8468  -19.1146 C   0  0  0  0  0
   -2.4697    0.4961  -18.7687 C   0  0  0  0  0
   -2.7387    1.1165  -17.5384 C   0  0  0  0  0
   -2.1958    2.3719  -17.2489 C   0  0  0  0  0
   -1.3814    3.0136  -18.1861 C   0  0  0  0  0
   -1.1103    2.3998  -19.4126 C   0  0  0  0  0
   -1.6536    1.1440  -19.7020 C   0  0  0  0  0
   -6.4318   -2.1246  -17.4041 O   0  0  0  0  0
   -8.4614   -0.8212  -18.4559 O   0  0  0  0  0
   -7.7137   -0.0811  -16.0667 O   0  0  0  0  0
   -6.2104    0.5047  -18.2992 O   0  0  0  0  0
   -3.8274   -1.3495  -18.0786 O   0  0  0  0  0
   -2.5473   -3.8107  -17.6642 O   0  0  0  0  0
   -2.4228   -2.2066  -15.5802 O   0  0  0  0  0
   -2.9494   -4.7185  -15.0643 O   0  0  0  0  0
   -0.4506   -3.8924  -15.8730 O   0  0  0  0  0
   -4.1554   -6.1023  -17.4542 O   0  0  0  0  0
   -4.1824   -7.7370  -19.5177 O   0  0  0  0  0
   -2.6493   -8.4123  -17.5146 O   0  0  0  0  0
   -1.9973   -6.3304  -19.1974 O   0  0  0  0  0
   -6.5899   -6.1110  -18.8567 O   0  0  0  0  0
   -8.7845   -5.8393  -17.4270 O   0  0  0  0  0
   -6.7486   -6.9418  -16.2055 O   0  0  0  0  0
   -8.1638   -8.2670  -18.1623 O   0  0  0  0  0
   -7.8708   -3.6489  -19.2694 O   0  0  0  0  0
   -7.8882   -5.0121  -21.5195 O   0  0  0  0  0
   -9.9166   -3.4193  -21.1046 O   0  0  0  0  0
   -7.4171   -2.4435  -21.7304 O   0  0  0  0  0
   -7.2360   -0.6397  -17.5892 P   0  0  0  0  0
   -2.1104   -3.6147  -16.0345 P   0  0  0  0  0
   -3.2763   -7.1553  -18.4558 P   0  0  0  0  0
   -7.6025   -6.7550  -17.6547 P   0  0  0  0  0
   -8.2549   -3.6719  -20.9219 P   0  0  0  0  0
  1  2  1  0  0  0
  1 31  1  0  0  0
  2  3  1  0  0  0
  2 27  1  0  0  0
  3  4  1  0  0  0
  3 23  1  0  0  0
  4  5  1  0  0  0
  4 19  1  0  0  0
  5  6  1  0  0  0
  5 18  1  0  0  0
  6 14  1  0  0  0
  6  1  1  0  0  0
  7 18  1  0  0  0
  7  8  1  0  0  0
  9 10  1  0  0  0
 11 12  1  0  0  0
 13  8  1  0  0  0
 35 14  1  0  0  0
 35 16  1  0  0  0
 35 17  1  0  0  0
 36 19  1  0  0  0
 36 21  1  0  0  0
 36 22  1  0  0  0
 37 23  1  0  0  0
 37 25  1  0  0  0
 37 26  1  0  0  0
 38 27  1  0  0  0
 38 29  1  0  0  0
 38 30  1  0  0  0
 39 31  1  0  0  0
 39 33  1  0  0  0
 39 34  1  0  0  0
  8  9  2  0  0  0
 10 11  2  0  0  0
 12 13  2  0  0  0
 35 15  2  0  0  0
 36 20  2  0  0  0
 37 24  2  0  0  0
 38 28  2  0  0  0
 39 32  2  0  0  0
M  END
> <rmsd>
0.628174901

$$$$
CHEMBL4641662 CHEMBL4650756 PubChem-156014965 PubChem-156016276


 70 73  0  0  0  0  0  0  0  0999 V2000
   -6.8451   -0.4469  -16.4707 O   0  0  0  0  0
   -8.0116   -2.6934  -17.1692 O   0  0  0  0  0
   -4.2474   -7.3909  -19.1523 O   0  0  0  0  0
   -2.4049   -7.5499  -17.7560 O   0  0  0  0  0
   -2.2744   -8.6182  -19.7975 O   0  0  0  0  0
   -8.1888   -0.3571  -18.7101 O   0  0  0  0  0
  -10.2584   -1.9441  -18.8340 O   0  0  0  0  0
   -9.6940   -0.5815  -20.9936 O   0  0  0  0  0
   -8.1129   -2.7128  -20.2171 O   0  0  0  0  0
   -9.7962   -4.6461  -19.5975 O   0  0  0  0  0
   -8.1407   -5.1096  -21.5405 O   0  0  0  0  0
  -10.2504   -3.3971  -21.9200 O   0  0  0  0  0
  -12.9675   -2.6578  -23.0326 O   0  0  0  0  0
  -18.1509   -4.7067  -25.5905 O   0  0  0  0  0
  -15.1117   -4.4141  -22.2633 O   0  0  0  0  0
  -12.9427   -0.6405  -20.2025 O   0  0  0  0  0
   -5.7701   -1.7236  -18.4951 O   0  0  0  0  0
   -0.6997    1.5931  -16.6838 O   0  0  0  0  0
   -1.4697    3.7269  -16.1678 O   0  0  0  0  0
   -7.1978   -1.2860  -17.6806 P   0  0  0  0  0
   -9.0976   -1.4349  -19.6617 P   0  0  0  0  0
   -9.1229   -3.9680  -20.7736 P   0  0  0  0  0
   -7.1391   -3.3759  -16.3128 C   0  0  0  0  0
   -6.3841   -4.4318  -17.0541 C   0  0  0  0  0
   -4.9895   -4.4599  -16.9759 C   0  0  0  0  0
   -4.2696   -5.4409  -17.6621 C   0  0  0  0  0
   -4.9386   -6.4023  -18.4375 C   0  0  0  0  0
   -6.3343   -6.3631  -18.5200 C   0  0  0  0  0
   -7.0564   -5.3868  -17.8261 C   0  0  0  0  0
   -2.9508   -7.8337  -18.8588 C   0  0  0  0  0
   -1.0344   -9.2486  -19.4932 C   0  0  0  0  0
   -1.2884  -10.5865  -18.8159 C   0  0  0  0  0
    0.0089  -11.1643  -18.2598 C   0  0  0  0  0
    0.9732  -11.5658  -19.3682 C   0  0  0  0  0
    0.5049  -12.8354  -20.0548 C   0  0  0  0  0
    1.4998  -13.2185  -21.1330 C   0  0  0  0  0
    1.0477  -14.4727  -21.8626 C   0  0  0  0  0
    1.2313  -15.7028  -20.9851 C   0  0  0  0  0
    0.8301  -16.9584  -21.7438 C   0  0  0  0  0
    1.8990  -17.3543  -22.7510 C   0  0  0  0  0
    3.0601  -18.0363  -22.0431 C   0  0  0  0  0
    4.1520  -18.3815  -23.0398 C   0  0  0  0  0
    4.9678  -17.1484  -23.3771 C   0  0  0  0  0
    5.9971  -17.4967  -24.4320 C   0  0  0  0  0
    6.8353  -16.2749  -24.7413 C   0  0  0  0  0
    7.8392  -16.6160  -25.8210 C   0  0  0  0  0
  -11.4937   -3.3519  -21.2828 C   0  0  0  0  0
  -12.3234   -2.2239  -21.8641 C   0  0  0  0  0
  -13.3694   -1.7923  -20.8655 C   0  0  0  0  0
  -14.5651   -1.4780  -21.7084 C   0  0  0  0  0
  -14.1538   -1.9078  -23.1029 C   0  0  0  0  0
  -15.7896   -2.1387  -24.8598 C   0  0  0  0  0
  -16.8151   -2.8015  -25.5350 C   0  0  0  0  0
  -17.3886   -2.1418  -26.7244 C   0  0  0  0  0
  -18.3862   -2.6390  -27.4468 C   0  0  0  0  0
  -17.2301   -4.0510  -25.0338 C   0  0  0  0  0
  -15.6366   -3.8969  -23.2863 C   0  0  0  0  0
   -5.3466   -0.5784  -19.1789 C   0  0  0  0  0
   -4.1335   -0.0057  -18.5284 C   0  0  0  0  0
   -2.9495   -0.7465  -18.4546 C   0  0  0  0  0
   -1.8187   -0.1984  -17.8412 C   0  0  0  0  0
   -1.8577    1.0924  -17.2999 C   0  0  0  0  0
   -3.0496    1.8311  -17.3821 C   0  0  0  0  0
   -4.1805    1.2853  -17.9946 C   0  0  0  0  0
   -0.5589    2.8570  -16.0934 C   0  0  0  0  0
    0.7124    3.1878  -15.3911 C   0  0  0  0  0
    1.6415    3.9306  -16.3295 C   0  0  0  0  0
  -15.2149   -2.6786  -23.7521 N   0  0  0  0  0
  -16.6314   -4.5626  -23.9284 N   0  0  0  0  0
  -19.0353   -1.6838  -28.9627 Br  0  0  0  0  0
 20  2  1  0  0  0
 20  6  1  0  0  0
 20 17  1  0  0  0
 21  6  1  0  0  0
 21  8  1  0  0  0
 21  9  1  0  0  0
 22  9  1  0  0  0
 22 11  1  0  0  0
 22 12  1  0  0  0
 23  2  1  0  0  0
 23 24  1  0  0  0
 25 26  1  0  0  0
 27 28  1  0  0  0
 27  3  1  0  0  0
 29 24  1  0  0  0
 30  3  1  0  0  0
 30  5  1  0  0  0
 31  5  1  0  0  0
 31 32  1  0  0  0
 32 33  1  0  0  0
 33 34  1  0  0  0
 34 35  1  0  0  0
 35 36  1  0  0  0
 36 37  1  0  0  0
 37 38  1  0  0  0
 38 39  1  0  0  0
 39 40  1  0  0  0
 40 41  1  0  0  0
 41 42  1  0  0  0
 42 43  1  0  0  0
 43 44  1  0  0  0
 44 45  1  0  0  0
 45 46  1  0  0  0
 47 12  1  0  0  0
 48 47  1  0  0  0
 48 49  1  0  0  0
 48 13  1  0  0  0
 49 50  1  0  0  0
 49 16  1  0  0  0
 50 51  1  0  0  0
 51 13  1  0  0  0
 51 68  1  0  0  0
 53 54  1  0  0  0
 53 56  1  0  0  0
 55 70  1  0  0  0
 56 69  1  0  0  0
 57 68  1  0  0  0
 58 17  1  0  0  0
 58 59  1  0  0  0
 60 61  1  0  0  0
 62 63  1  0  0  0
 62 18  1  0  0  0
 64 59  1  0  0  0
 65 18  1  0  0  0
 66 65  1  0  0  0
 66 67  1  0  0  0
 68 52  1  0  0  0
 69 57  1  0  0  0
 20  1  2  0  0  0
 21  7  2  0  0  0
 22 10  2  0  0  0
 24 25  2  0  0  0
 26 27  2  0  0  0
 28 29  2  0  0  0
 30  4  2  0  0  0
 52 53  2  0  0  0
 54 55  2  0  0  0
 56 14  2  0  0  0
 57 15  2  0  0  0
 59 60  2  0  0  0
 61 62  2  0  0  0
 63 64  2  0  0  0
 65 19  2  0  0  0
M  END
> <rmsd>
0.81061846

$$$$
CHEMBL410213 PubChem-44340441


 78 86  0  0  0  0  0  0  0  0999 V2000
   -4.6450   -7.1940  -18.3222 N   0  0  0  0  0
   -2.5997   -7.3931  -17.3718 N   0  0  0  0  0
   -2.2017   -9.9443  -19.9598 N   0  0  0  0  0
   -4.3278   -8.8777  -20.0377 N   0  0  0  0  0
   -0.5288   -9.3446  -18.3111 N   0  0  0  0  0
   -5.1335    1.7632  -16.7890 N   0  0  0  0  0
   -3.4482    3.1417  -16.1731 N   0  0  0  0  0
   -1.5858    1.0973  -18.5588 N   0  0  0  0  0
   -3.8592    0.4293  -18.3546 N   0  0  0  0  0
   -0.6719    2.9382  -17.2724 N   0  0  0  0  0
   -7.8585    8.1208  -18.9206 N   0  0  0  0  0
  -10.0239    7.4720  -18.7795 N   0  0  0  0  0
  -10.5896   11.0466  -19.2989 N   0  0  0  0  0
   -8.2785   10.4738  -19.2711 N   0  0  0  0  0
  -12.3248    9.3771  -19.0036 N   0  0  0  0  0
   -3.9413   -8.1297  -18.9741 C   0  0  0  0  0
   -2.7268   -8.2545  -18.3985 C   0  0  0  0  0
   -3.8014   -6.7479  -17.3564 C   0  0  0  0  0
   -1.8198   -9.1831  -18.8908 C   0  0  0  0  0
   -3.4405   -9.7961  -20.5318 C   0  0  0  0  0
   -3.8235  -10.6436  -21.6914 C   0  0  0  0  0
   -5.9860   -6.6911  -18.5975 C   0  0  0  0  0
   -5.9389   -5.6105  -19.6597 C   0  0  0  0  0
   -6.6808   -6.2291  -20.8123 C   0  0  0  0  0
   -7.5008   -7.3089  -20.1616 C   0  0  0  0  0
   -7.6613   -8.4637  -21.1287 C   0  0  0  0  0
   -6.8636   -2.2566  -17.4641 C   0  0  0  0  0
   -7.3906   -0.8736  -17.1052 C   0  0  0  0  0
   -6.4605    1.1639  -16.8596 C   0  0  0  0  0
   -4.0166    1.4160  -17.4390 C   0  0  0  0  0
   -3.0137    2.2418  -17.0739 C   0  0  0  0  0
   -4.7640    2.8178  -16.0191 C   0  0  0  0  0
   -1.7553    2.0908  -17.6369 C   0  0  0  0  0
   -2.6229    0.2729  -18.9171 C   0  0  0  0  0
   -2.4003   -0.7927  -19.9289 C   0  0  0  0  0
   -6.9603    1.1469  -18.2822 C   0  0  0  0  0
   -7.7882   -0.1099  -18.3531 C   0  0  0  0  0
   -5.4921    4.7954  -19.6897 C   0  0  0  0  0
   -5.1870    6.1931  -19.1646 C   0  0  0  0  0
   -6.4003    8.0963  -18.9135 C   0  0  0  0  0
   -8.6488    9.1839  -19.0828 C   0  0  0  0  0
   -9.9402    8.7993  -18.9962 C   0  0  0  0  0
   -8.7175    7.0828  -18.7376 C   0  0  0  0  0
  -10.9515    9.7430  -19.1064 C   0  0  0  0  0
   -9.2679   11.4129  -19.3831 C   0  0  0  0  0
   -8.9092   12.8411  -19.5880 C   0  0  0  0  0
   -5.8878    7.7399  -17.5339 C   0  0  0  0  0
   -5.4976    6.2989  -17.6939 C   0  0  0  0  0
   -6.8344   -7.7424  -19.0019 O   0  0  0  0  0
   -8.4920   -9.4404  -20.5713 O   0  0  0  0  0
   -7.4449  -11.1193  -22.2881 O   0  0  0  0  0
   -9.7462  -11.8057  -21.2089 O   0  0  0  0  0
  -11.0239  -13.9512  -21.9908 O   0  0  0  0  0
   -8.9347  -13.2749  -23.4678 O   0  0  0  0  0
   -8.8518  -15.7464  -22.5546 O   0  0  0  0  0
   -7.8025  -13.9298  -20.9916 O   0  0  0  0  0
   -6.5883  -14.7140  -23.3257 O   0  0  0  0  0
  -11.3053  -11.8661  -23.4998 O   0  0  0  0  0
   -9.5284   -9.7574  -23.1054 O   0  0  0  0  0
   -7.5066   -5.3108  -21.4668 O   0  0  0  0  0
   -6.6041   -4.4793  -19.1684 O   0  0  0  0  0
   -4.1301   -3.5876  -19.6313 O   0  0  0  0  0
   -5.5690   -2.1710  -17.9872 O   0  0  0  0  0
   -6.4208   -0.1548  -16.3791 O   0  0  0  0  0
   -9.1566    0.1725  -18.2940 O   0  0  0  0  0
   -7.7048    2.3007  -18.5501 O   0  0  0  0  0
   -8.1660    2.7310  -21.0785 O   0  0  0  0  0
   -6.8723    4.6059  -19.8122 O   0  0  0  0  0
   -5.9278    7.1656  -19.8649 O   0  0  0  0  0
   -4.3710    5.9786  -16.9332 O   0  0  0  0  0
   -4.7731    8.5377  -17.2504 O   0  0  0  0  0
   -5.6868    2.1601  -20.5119 O   0  0  0  0  0
   -6.0924   -2.2318  -20.6918 O   0  0  0  0  0
   -8.7673  -10.5539  -21.8198 P   0  0  0  0  0
  -10.2553  -12.7606  -22.5226 P   0  0  0  0  0
   -8.0786  -14.4473  -22.5777 P   0  0  0  0  0
   -5.5569   -3.1475  -19.3745 P   0  0  0  0  0
   -7.1147    2.9357  -20.0131 P   0  0  0  0  0
  1 16  1  0  0  0
  6 30  1  0  0  0
 11 41  1  0  0  0
 16  4  1  0  0  0
 17  2  1  0  0  0
 17 19  1  0  0  0
 18  1  1  0  0  0
 19  5  1  0  0  0
 20  3  1  0  0  0
 21 20  1  0  0  0
 22  1  1  0  0  0
 22 23  1  0  0  0
 22 49  1  0  0  0
 23 24  1  0  0  0
 23 61  1  0  0  0
 24 25  1  0  0  0
 24 60  1  0  0  0
 25 49  1  0  0  0
 25 26  1  0  0  0
 26 50  1  0  0  0
 27 63  1  0  0  0
 28 27  1  0  0  0
 28 64  1  0  0  0
 29 64  1  0  0  0
 29  6  1  0  0  0
 29 36  1  0  0  0
 30  9  1  0  0  0
 31  7  1  0  0  0
 31 33  1  0  0  0
 32  6  1  0  0  0
 33 10  1  0  0  0
 34  8  1  0  0  0
 35 34  1  0  0  0
 36 37  1  0  0  0
 36 66  1  0  0  0
 37 65  1  0  0  0
 37 28  1  0  0  0
 38 68  1  0  0  0
 39 38  1  0  0  0
 39 69  1  0  0  0
 40 69  1  0  0  0
 40 11  1  0  0  0
 40 47  1  0  0  0
 41 14  1  0  0  0
 42 12  1  0  0  0
 42 44  1  0  0  0
 43 11  1  0  0  0
 44 15  1  0  0  0
 45 13  1  0  0  0
 46 45  1  0  0  0
 47 48  1  0  0  0
 47 71  1  0  0  0
 48 70  1  0  0  0
 48 39  1  0  0  0
 74 50  1  0  0  0
 74 52  1  0  0  0
 74 59  1  0  0  0
 75 52  1  0  0  0
 75 54  1  0  0  0
 75 58  1  0  0  0
 76 54  1  0  0  0
 76 56  1  0  0  0
 76 57  1  0  0  0
 77 61  1  0  0  0
 77 63  1  0  0  0
 77 73  1  0  0  0
 78 66  1  0  0  0
 78 68  1  0  0  0
 78 72  1  0  0  0
 16 17  2  0  0  0
 18  2  2  0  0  0
 19  3  2  0  0  0
 20  4  2  0  0  0
 30 31  2  0  0  0
 32  7  2  0  0  0
 33  8  2  0  0  0
 34  9  2  0  0  0
 41 42  2  0  0  0
 43 12  2  0  0  0
 44 13  2  0  0  0
 45 14  2  0  0  0
 74 51  2  0  0  0
 75 53  2  0  0  0
 76 55  2  0  0  0
 77 62  2  0  0  0
 78 67  2  0  0  0
M  END
> <rmsd>
0.747060239

$$$$
CHEMBL188778 PubChem-44397155


 54 59  0  0  0  0  0  0  0  0999 V2000
   -4.2238   -2.3842  -16.3349 C   0  0  0  0  0
   -6.1807   -1.6320  -16.8926 C   0  0  0  0  0
   -6.0568   -2.9021  -17.4712 C   0  0  0  0  0
   -4.7981   -3.3644  -17.1018 C   0  0  0  0  0
   -4.1194   -4.5635  -17.3454 C   0  0  0  0  0
   -2.8201   -4.6888  -16.7946 C   0  0  0  0  0
   -2.9411   -2.5687  -15.7994 C   0  0  0  0  0
   -2.0874   -5.8551  -17.0184 C   0  0  0  0  0
   -2.6298   -6.9079  -17.7746 C   0  0  0  0  0
   -3.9252   -6.7905  -18.3044 C   0  0  0  0  0
   -4.6627   -5.6165  -18.0849 C   0  0  0  0  0
   -5.7632   -7.8140  -19.6114 C   0  0  0  0  0
   -0.5803   -8.2738  -17.5200 C   0  0  0  0  0
   -7.0642   -3.6085  -18.2799 C   0  0  0  0  0
   -6.7674   -4.0027  -19.5896 C   0  0  0  0  0
   -7.7277   -4.6622  -20.3743 C   0  0  0  0  0
   -9.0041   -4.9069  -19.8462 C   0  0  0  0  0
   -9.2985   -4.5102  -18.5299 C   0  0  0  0  0
   -8.3338   -3.8676  -17.7519 C   0  0  0  0  0
  -11.2907   -5.7925  -20.1946 C   0  0  0  0  0
   -6.1490   -4.9219  -22.2609 C   0  0  0  0  0
   -7.3326   -0.7155  -17.0544 C   0  0  0  0  0
   -8.8494    1.1035  -19.1341 C   0  0  0  0  0
  -10.0092    2.0225  -19.4822 C   0  0  0  0  0
  -10.8616    1.4491  -20.5668 C   0  0  0  0  0
  -11.6191    0.2904  -20.3482 C   0  0  0  0  0
  -12.4341   -0.2288  -21.3668 C   0  0  0  0  0
  -13.1815   -2.1278  -19.9671 C   0  0  0  0  0
  -12.4926    0.4282  -22.5998 C   0  0  0  0  0
  -11.7453    1.5901  -22.8176 C   0  0  0  0  0
  -10.9326    2.1000  -21.8016 C   0  0  0  0  0
   -4.7328   -0.0598  -15.5419 C   0  0  0  0  0
   -4.4929    1.0457  -16.5676 C   0  0  0  0  0
   -3.3050    0.7607  -17.4245 C   0  0  0  0  0
   -2.0166    0.7827  -16.8833 C   0  0  0  0  0
   -0.8980    0.5134  -17.6887 C   0  0  0  0  0
   -1.0796    0.2312  -19.0502 C   0  0  0  0  0
   -2.3777    0.2176  -19.5890 C   0  0  0  0  0
   -3.4841    0.4817  -18.7797 C   0  0  0  0  0
   -0.0606   -0.2924  -21.2430 C   0  0  0  0  0
    0.6638    0.7747  -15.7887 C   0  0  0  0  0
   -5.0506   -1.3256  -16.2011 N   0  0  0  0  0
   -8.2355   -0.8793  -18.1477 N   0  0  0  0  0
   -9.3234   -0.0188  -18.3404 N   0  0  0  0  0
   -2.2925   -3.7056  -16.0577 O   0  0  0  0  0
   -2.4018   -1.6945  -15.0728 O   0  0  0  0  0
   -4.4588   -7.8499  -19.0469 O   0  0  0  0  0
   -1.9005   -8.0787  -18.0097 O   0  0  0  0  0
   -9.9638   -5.5448  -20.6411 O   0  0  0  0  0
   -7.4346   -5.0800  -21.6764 O   0  0  0  0  0
   -7.5138    0.2241  -16.2333 O   0  0  0  0  0
  -13.1919   -1.3884  -21.1802 O   0  0  0  0  0
    0.0402   -0.0275  -19.8488 O   0  0  0  0  0
    0.3971    0.5221  -17.1586 O   0  0  0  0  0
  1 42  1  0  0  0
  2 22  1  0  0  0
  3  4  1  0  0  0
  3 14  1  0  0  0
  4  5  1  0  0  0
  6 45  1  0  0  0
  6  8  1  0  0  0
  7 45  1  0  0  0
  7  1  1  0  0  0
  9 10  1  0  0  0
  9 48  1  0  0  0
 10 47  1  0  0  0
 11  5  1  0  0  0
 12 47  1  0  0  0
 13 48  1  0  0  0
 15 16  1  0  0  0
 16 50  1  0  0  0
 17 18  1  0  0  0
 17 49  1  0  0  0
 19 14  1  0  0  0
 20 49  1  0  0  0
 21 50  1  0  0  0
 22 43  1  0  0  0
 23 44  1  0  0  0
 23 24  1  0  0  0
 24 25  1  0  0  0
 26 27  1  0  0  0
 27 52  1  0  0  0
 28 52  1  0  0  0
 29 30  1  0  0  0
 31 25  1  0  0  0
 32 42  1  0  0  0
 32 33  1  0  0  0
 33 34  1  0  0  0
 35 36  1  0  0  0
 36 54  1  0  0  0
 37 38  1  0  0  0
 37 53  1  0  0  0
 39 34  1  0  0  0
 40 53  1  0  0  0
 41 54  1  0  0  0
 42  2  1  0  0  0
 43 44  1  0  0  0
  2  3  2  0  0  0
  4  1  2  0  0  0
  5  6  2  0  0  0
  7 46  2  0  0  0
  8  9  2  0  0  0
 10 11  2  0  0  0
 14 15  2  0  0  0
 16 17  2  0  0  0
 18 19  2  0  0  0
 22 51  2  0  0  0
 25 26  2  0  0  0
 27 29  2  0  0  0
 30 31  2  0  0  0
 34 35  2  0  0  0
 36 37  2  0  0  0
 38 39  2  0  0  0
M  END
> <rmsd>
0.536934376

$$$$
CHEMBL500840 PubChem-44585517


 44 46  0  0  0  0  0  0  0  0999 V2000
   -5.2372   -0.4514  -17.7293 C   0  0  0  0  0
   -6.5521   -1.9279  -18.7690 C   0  0  0  0  0
   -7.4069   -0.6851  -18.6749 C   0  0  0  0  0
   -6.5406    0.2972  -17.9213 C   0  0  0  0  0
   -6.7386   -2.5759  -20.1283 C   0  0  0  0  0
   -2.6776  -12.4256  -18.6237 C   0  0  0  0  0
   -2.8707  -13.5458  -17.6181 C   0  0  0  0  0
   -3.9010  -14.5235  -18.1352 C   0  0  0  0  0
   -3.2796  -15.8730  -17.9297 C   0  0  0  0  0
   -1.9768  -15.5746  -17.1969 C   0  0  0  0  0
   -2.1734  -15.8460  -15.7038 C   0  0  0  0  0
   -0.9228  -15.5241  -14.9023 C   0  0  0  0  0
   -3.8090    0.9651  -19.1936 C   0  0  0  0  0
   -1.8840    2.0241  -18.3160 C   0  0  0  0  0
   -2.1399    1.4771  -17.0623 C   0  0  0  0  0
   -3.2610    0.6641  -16.9115 C   0  0  0  0  0
   -5.2087   -1.5620  -18.5893 O   0  0  0  0  0
   -7.0772    0.6257  -16.6733 O   0  0  0  0  0
   -8.5930   -0.9763  -17.9955 O   0  0  0  0  0
   -6.0510   -3.7904  -20.1719 O   0  0  0  0  0
   -7.5927   -4.5913  -22.1543 O   0  0  0  0  0
   -8.5425   -4.9059  -19.7445 O   0  0  0  0  0
   -6.5008   -6.4926  -20.6756 O   0  0  0  0  0
   -4.1792   -5.4294  -21.4180 O   0  0  0  0  0
   -5.6982   -6.3521  -23.3272 O   0  0  0  0  0
   -4.3980   -8.0525  -21.6135 O   0  0  0  0  0
   -2.5748   -7.1964  -19.9223 O   0  0  0  0  0
   -4.8903   -7.8551  -18.8734 O   0  0  0  0  0
   -3.1229   -9.7649  -19.8806 O   0  0  0  0  0
   -3.9286  -10.0337  -17.3787 O   0  0  0  0  0
   -1.6854   -8.7300  -17.7161 O   0  0  0  0  0
   -1.8411  -11.4449  -18.0856 O   0  0  0  0  0
   -1.6535  -14.2209  -17.4077 O   0  0  0  0  0
   -0.9405  -16.3817  -17.6787 O   0  0  0  0  0
   -3.0399  -16.4493  -19.1802 O   0  0  0  0  0
   -5.0643  -14.4203  -17.3728 O   0  0  0  0  0
   -4.5577    0.7413  -20.1827 O   0  0  0  0  0
   -0.8803    2.7629  -18.4875 O   0  0  0  0  0
   -7.1736   -4.9298  -20.7398 P   0  0  0  0  0
   -5.1640   -6.5357  -21.7326 P   0  0  0  0  0
   -3.7187   -8.1786  -20.0556 P   0  0  0  0  0
   -2.6895   -9.9853  -18.2466 P   0  0  0  0  0
   -4.0834    0.4161  -17.9666 N   0  0  0  0  0
   -2.7178    1.7595  -19.3540 N   0  0  0  0  0
  1 17  1  0  0  0
  1 43  1  0  0  0
  2 17  1  0  0  0
  2  3  1  0  0  0
  2  5  1  0  0  0
  3  4  1  0  0  0
  3 19  1  0  0  0
  4 18  1  0  0  0
  4  1  1  0  0  0
  5 20  1  0  0  0
  6 32  1  0  0  0
  7  6  1  0  0  0
  7  8  1  0  0  0
  7 33  1  0  0  0
  8  9  1  0  0  0
  8 36  1  0  0  0
  9 10  1  0  0  0
  9 35  1  0  0  0
 10 33  1  0  0  0
 10 11  1  0  0  0
 10 34  1  0  0  0
 11 12  1  0  0  0
 13 44  1  0  0  0
 14 15  1  0  0  0
 16 43  1  0  0  0
 39 20  1  0  0  0
 39 22  1  0  0  0
 39 23  1  0  0  0
 40 23  1  0  0  0
 40 25  1  0  0  0
 40 26  1  0  0  0
 41 26  1  0  0  0
 41 28  1  0  0  0
 41 29  1  0  0  0
 42 29  1  0  0  0
 42 31  1  0  0  0
 42 32  1  0  0  0
 43 13  1  0  0  0
 44 14  1  0  0  0
 13 37  2  0  0  0
 14 38  2  0  0  0
 15 16  2  0  0  0
 39 21  2  0  0  0
 40 24  2  0  0  0
 41 27  2  0  0  0
 42 30  2  0  0  0
M  END
> <rmsd>
0.726999164

$$$$
CHEMBL451109 PubChem-44576047


 68 75  0  0  0  0  0  0  0  0999 V2000
   -3.3764   -5.3249  -18.2256 C   0  0  0  0  0
   -4.5766   -4.7594  -19.0194 C   0  0  0  0  0
   -4.1277   -3.4951  -19.7718 C   0  0  0  0  0
   -5.0438   -3.0602  -20.9200 C   0  0  0  0  0
   -6.8521   -4.4270  -21.8878 C   0  0  0  0  0
   -7.8707   -3.3808  -21.6624 C   0  0  0  0  0
   -7.7807   -2.1991  -22.4051 C   0  0  0  0  0
   -8.7199   -1.1815  -22.2422 C   0  0  0  0  0
   -9.7580   -1.3294  -21.3187 C   0  0  0  0  0
   -9.8616   -2.5027  -20.5623 C   0  0  0  0  0
   -8.9268   -3.5444  -20.7343 C   0  0  0  0  0
   -9.0415   -4.7767  -19.9100 C   0  0  0  0  0
  -10.1408   -5.6282  -20.1335 C   0  0  0  0  0
  -10.2760   -6.8153  -19.4155 C   0  0  0  0  0
   -9.3003   -7.1947  -18.4969 C   0  0  0  0  0
   -8.1797   -6.3776  -18.2753 C   0  0  0  0  0
   -7.1079   -6.8771  -17.3980 C   0  0  0  0  0
   -5.8985   -7.3509  -17.9587 C   0  0  0  0  0
   -4.7202   -7.1952  -17.1959 C   0  0  0  0  0
   -4.8120   -6.9588  -15.8079 C   0  0  0  0  0
   -6.0589   -6.7454  -15.2165 C   0  0  0  0  0
   -7.1971   -6.6392  -16.0168 C   0  0  0  0  0
   -3.4638   -6.8365  -17.9495 C   0  0  0  0  0
   -5.8224   -7.8778  -19.3608 C   0  0  0  0  0
   -8.0509   -5.1271  -18.9480 C   0  0  0  0  0
   -6.9640   -4.1439  -18.5960 C   0  0  0  0  0
   -4.3145   -2.0802  -21.8409 C   0  0  0  0  0
   -5.2315   -0.0010  -20.9286 C   0  0  0  0  0
   -5.7366    0.1205  -19.5498 C   0  0  0  0  0
   -4.8788    0.1879  -18.4248 C   0  0  0  0  0
   -3.4461    0.5481  -18.5660 C   0  0  0  0  0
   -2.4024   -0.4160  -18.6072 C   0  0  0  0  0
   -1.0719    0.0295  -18.6266 C   0  0  0  0  0
   -0.7598    1.3862  -18.6077 C   0  0  0  0  0
   -1.7819    2.3342  -18.5816 C   0  0  0  0  0
   -3.1179    1.9213  -18.5582 C   0  0  0  0  0
   -2.6272   -1.8767  -18.7236 C   0  0  0  0  0
   -5.4367    0.1552  -17.1308 C   0  0  0  0  0
   -6.8245    0.0843  -16.9593 C   0  0  0  0  0
   -7.6667    0.0674  -18.0742 C   0  0  0  0  0
   -7.1224    0.0777  -19.3567 C   0  0  0  0  0
   -5.4919   -4.1804  -21.6735 O   0  0  0  0  0
   -7.2127   -5.5633  -22.2920 O   0  0  0  0  0
   -8.4072   -6.2582  -15.4445 O   0  0  0  0  0
   -6.1547   -6.5558  -13.8422 O   0  0  0  0  0
   -3.6671   -6.8858  -15.0209 O   0  0  0  0  0
   -2.3118   -7.3034  -17.3127 O   0  0  0  0  0
   -4.7878   -8.4782  -19.7568 O   0  0  0  0  0
   -6.8955   -7.7825  -20.2373 O   0  0  0  0  0
   -7.2217   -2.9131  -18.6170 O   0  0  0  0  0
   -5.6952   -4.5326  -18.1500 O   0  0  0  0  0
   -9.4353   -8.4020  -17.8168 O   0  0  0  0  0
  -11.3790   -7.6344  -19.6323 O   0  0  0  0  0
  -11.1035   -5.3000  -21.0847 O   0  0  0  0  0
  -10.8873   -2.6240  -19.6290 O   0  0  0  0  0
  -10.6856   -0.3078  -21.1475 O   0  0  0  0  0
   -8.6164   -0.0228  -23.0011 O   0  0  0  0  0
   -4.1387   -0.8211  -21.1983 O   0  0  0  0  0
   -5.8585    0.5326  -21.8824 O   0  0  0  0  0
   -4.1240    2.8831  -18.5169 O   0  0  0  0  0
   -1.4722    3.6899  -18.5725 O   0  0  0  0  0
    0.5705    1.7863  -18.6226 O   0  0  0  0  0
   -1.6340   -2.6558  -18.7603 O   0  0  0  0  0
   -3.9083   -2.4008  -18.8892 O   0  0  0  0  0
   -9.0459    0.0217  -17.9139 O   0  0  0  0  0
   -7.3664    0.0480  -15.6792 O   0  0  0  0  0
   -4.6125    0.2192  -16.0108 O   0  0  0  0  0
   -3.1825   -4.6123  -17.0378 O   0  0  0  0  0
  1  2  1  0  0  0
  1 68  1  0  0  0
  2  3  1  0  0  0
  2 51  1  0  0  0
  3  4  1  0  0  0
  3 64  1  0  0  0
  4 42  1  0  0  0
  4 27  1  0  0  0
  5 42  1  0  0  0
  5  6  1  0  0  0
  7  8  1  0  0  0
  8 57  1  0  0  0
  9 10  1  0  0  0
  9 56  1  0  0  0
 10 55  1  0  0  0
 11 12  1  0  0  0
 11  6  1  0  0  0
 12 13  1  0  0  0
 13 54  1  0  0  0
 14 15  1  0  0  0
 14 53  1  0  0  0
 15 52  1  0  0  0
 16 17  1  0  0  0
 16 25  1  0  0  0
 17 18  1  0  0  0
 18 24  1  0  0  0
 19 20  1  0  0  0
 20 46  1  0  0  0
 21 22  1  0  0  0
 21 45  1  0  0  0
 22 44  1  0  0  0
 23 19  1  0  0  0
 23 47  1  0  0  0
 23  1  1  0  0  0
 24 49  1  0  0  0
 25 26  1  0  0  0
 26 51  1  0  0  0
 27 58  1  0  0  0
 28 58  1  0  0  0
 28 29  1  0  0  0
 30 31  1  0  0  0
 30 38  1  0  0  0
 32 33  1  0  0  0
 32 37  1  0  0  0
 34 35  1  0  0  0
 34 62  1  0  0  0
 35 61  1  0  0  0
 36 60  1  0  0  0
 36 31  1  0  0  0
 37 64  1  0  0  0
 38 67  1  0  0  0
 39 40  1  0  0  0
 39 66  1  0  0  0
 40 65  1  0  0  0
 41 29  1  0  0  0
  5 43  2  0  0  0
  6  7  2  0  0  0
  8  9  2  0  0  0
 10 11  2  0  0  0
 13 14  2  0  0  0
 15 16  2  0  0  0
 18 19  2  0  0  0
 20 21  2  0  0  0
 22 17  2  0  0  0
 24 48  2  0  0  0
 25 12  2  0  0  0
 26 50  2  0  0  0
 28 59  2  0  0  0
 29 30  2  0  0  0
 31 32  2  0  0  0
 33 34  2  0  0  0
 35 36  2  0  0  0
 37 63  2  0  0  0
 38 39  2  0  0  0
 40 41  2  0  0  0
M  END
> <rmsd>
0.620008826

$$$$
CHEMBL523850 PubChem-155289968 PubChem-44219764


 29 30  0  0  0  0  0  0  0  0999 V2000
   -0.8133    2.6972  -18.7471 O   0  0  0  0  0
   -5.0227   -1.5778  -17.5709 O   0  0  0  0  0
   -7.1524   -6.7843  -19.6188 O   0  0  0  0  0
   -7.4708   -4.9544  -21.4426 O   0  0  0  0  0
   -4.9477   -5.6706  -20.6042 O   0  0  0  0  0
   -4.5863   -7.9477  -19.3434 O   0  0  0  0  0
   -4.3704   -5.7839  -17.8739 O   0  0  0  0  0
   -2.4546   -6.4779  -19.7788 O   0  0  0  0  0
   -0.1441   -7.2650  -18.8477 O   0  0  0  0  0
   -1.6376   -5.9422  -17.1739 O   0  0  0  0  0
   -2.2084   -8.5463  -17.9077 O   0  0  0  0  0
   -8.4221   -0.9116  -18.2055 O   0  0  0  0  0
   -7.2332    0.7742  -16.6473 O   0  0  0  0  0
   -3.6325    1.3314  -15.4786 O   0  0  0  0  0
   -1.8114    2.0177  -18.3941 C   0  0  0  0  0
   -2.5046    1.2593  -19.3327 C   0  0  0  0  0
   -3.6040    0.5201  -18.9029 C   0  0  0  0  0
   -5.1479   -0.2349  -17.1625 C   0  0  0  0  0
   -6.3077   -1.9898  -17.9546 C   0  0  0  0  0
   -6.2056   -3.0202  -19.0263 C   0  0  0  0  0
   -6.6980   -4.2385  -18.8269 C   0  0  0  0  0
   -7.0549   -0.7860  -18.4674 C   0  0  0  0  0
   -6.4308    0.3607  -17.7143 C   0  0  0  0  0
   -3.2885    1.2986  -16.6911 C   0  0  0  0  0
   -3.9851    0.5422  -17.5931 N   0  0  0  0  0
   -2.2135    2.0244  -17.0977 N   0  0  0  0  0
   -6.5688   -5.4784  -20.1117 P   0  0  0  0  0
   -4.1098   -6.5120  -19.3817 P   0  0  0  0  0
   -1.5849   -7.0648  -18.4385 P   0  0  0  0  0
 15 16  1  0  0  0
 17 25  1  0  0  0
 18 25  1  0  0  0
 18  2  1  0  0  0
 19  2  1  0  0  0
 19 20  1  0  0  0
 19 22  1  0  0  0
 22 12  1  0  0  0
 22 23  1  0  0  0
 23 13  1  0  0  0
 23 18  1  0  0  0
 24 26  1  0  0  0
 25 24  1  0  0  0
 26 15  1  0  0  0
 27 21  1  0  0  0
 27  4  1  0  0  0
 27  5  1  0  0  0
 28  5  1  0  0  0
 28  7  1  0  0  0
 28  8  1  0  0  0
 29  8  1  0  0  0
 29 10  1  0  0  0
 29 11  1  0  0  0
 15  1  2  0  0  0
 16 17  2  0  0  0
 20 21  2  0  0  0
 24 14  2  0  0  0
 27  3  2  0  0  0
 28  6  2  0  0  0
 29  9  2  0  0  0
M  END
> <rmsd>
0.620087624

$$$$
CHEMBL2029165 PubChem-70681502


 31 33  0  0  0  0  0  0  0  0999 V2000
   -7.3829   -0.6791  -16.3860 O   0  0  0  0  0
    0.7101    2.1631  -18.1955 O   0  0  0  0  0
   -8.9184   -0.7526  -18.8318 O   0  0  0  0  0
   -7.9235   -4.8089  -21.2198 O   0  0  0  0  0
   -4.8938   -3.2749  -17.7615 O   0  0  0  0  0
   -4.6609   -5.5445  -17.3610 O   0  0  0  0  0
   -5.0861   -7.2670  -19.6313 O   0  0  0  0  0
   -1.7253   -7.7231  -17.2833 O   0  0  0  0  0
   -0.6440   -5.1597  -16.5642 O   0  0  0  0  0
   -2.1038   -2.9869  -17.7266 O   0  0  0  0  0
   -6.5334   -0.9735  -17.2678 C   0  0  0  0  0
   -5.2311   -0.2879  -17.2376 C   0  0  0  0  0
   -4.3498   -0.3718  -18.2325 C   0  0  0  0  0
   -3.0450    0.3008  -18.1989 C   0  0  0  0  0
   -2.6377    1.0694  -17.0967 C   0  0  0  0  0
   -1.3850    1.6903  -17.0963 C   0  0  0  0  0
   -0.5334    1.5460  -18.1952 C   0  0  0  0  0
   -0.9339    0.7806  -19.2939 C   0  0  0  0  0
   -2.1866    0.1597  -19.2946 C   0  0  0  0  0
   -6.8832   -1.9780  -18.2997 C   0  0  0  0  0
   -8.0736   -1.8370  -19.0414 C   0  0  0  0  0
   -8.4136   -2.7817  -20.0124 C   0  0  0  0  0
   -7.5827   -3.8757  -20.2508 C   0  0  0  0  0
   -6.4115   -4.0345  -19.5113 C   0  0  0  0  0
   -6.0542   -3.0986  -18.5276 C   0  0  0  0  0
   -4.0304   -4.3982  -17.8984 C   0  0  0  0  0
   -3.8793   -6.6913  -17.6427 C   0  0  0  0  0
   -3.8077   -7.0021  -19.1410 C   0  0  0  0  0
   -2.5029   -6.6074  -16.9648 C   0  0  0  0  0
   -1.7798   -5.3221  -17.3587 C   0  0  0  0  0
   -2.7063   -4.1224  -17.1827 C   0  0  0  0  0
 11 12  1  0  0  0
 11 20  1  0  0  0
 13 14  1  0  0  0
 15 16  1  0  0  0
 17  2  1  0  0  0
 17 18  1  0  0  0
 19 14  1  0  0  0
 21  3  1  0  0  0
 21 22  1  0  0  0
 23  4  1  0  0  0
 23 24  1  0  0  0
 25  5  1  0  0  0
 25 20  1  0  0  0
 26  5  1  0  0  0
 26  6  1  0  0  0
 27  6  1  0  0  0
 27 28  1  0  0  0
 27 29  1  0  0  0
 28  7  1  0  0  0
 29  8  1  0  0  0
 29 30  1  0  0  0
 30  9  1  0  0  0
 30 31  1  0  0  0
 31 10  1  0  0  0
 31 26  1  0  0  0
 11  1  2  0  0  0
 12 13  2  0  0  0
 14 15  2  0  0  0
 16 17  2  0  0  0
 18 19  2  0  0  0
 20 21  2  0  0  0
 22 23  2  0  0  0
 24 25  2  0  0  0
M  END
> <rmsd>
0.758674085

$$$$
CHEMBL2113398 PubChem-71459956


 61 64  0  0  0  0  0  0  0  0999 V2000
   -1.4478  -21.3292  -17.6244 N   0  0  0  0  0
   -4.0272    0.9250  -17.6617 N   0  0  0  0  0
   -2.5530    2.3402  -18.8554 N   0  0  0  0  0
    0.0881  -22.2319  -16.0619 N   0  0  0  0  0
   -1.8645  -21.0856  -19.0181 C   0  0  0  0  0
   -0.9062  -20.1284  -19.7085 C   0  0  0  0  0
   -1.7961  -19.0801  -20.3186 C   0  0  0  0  0
   -3.1019  -19.2549  -19.5719 C   0  0  0  0  0
   -3.2027  -18.2792  -18.4025 C   0  0  0  0  0
   -6.4636   -1.9068  -20.2231 C   0  0  0  0  0
   -6.4028   -1.3785  -18.8014 C   0  0  0  0  0
   -5.1920    0.0448  -17.5701 C   0  0  0  0  0
   -3.6457    1.5305  -18.8337 C   0  0  0  0  0
   -1.8229    2.5636  -17.7326 C   0  0  0  0  0
   -2.1903    1.9623  -16.5333 C   0  0  0  0  0
   -3.3114    1.1340  -16.5243 C   0  0  0  0  0
   -6.4759    0.8021  -17.8388 C   0  0  0  0  0
   -7.2890   -0.1611  -18.6724 C   0  0  0  0  0
   -0.3067  -22.0412  -17.3493 C   0  0  0  0  0
   -0.6402  -21.7429  -15.0263 C   0  0  0  0  0
   -1.8090  -21.0293  -15.2733 C   0  0  0  0  0
   -2.1932  -20.8295  -16.5945 C   0  0  0  0  0
   -3.1817  -20.5746  -19.0865 O   0  0  0  0  0
   -2.9848  -16.9616  -18.8266 O   0  0  0  0  0
   -0.9545  -15.4204  -18.1939 O   0  0  0  0  0
   -3.1285  -15.2145  -16.6735 O   0  0  0  0  0
   -2.1571  -12.9111  -17.4503 O   0  0  0  0  0
   -4.7332  -12.9857  -16.8705 O   0  0  0  0  0
   -5.2448  -11.7803  -19.1598 O   0  0  0  0  0
   -3.5588  -10.5490  -17.5418 O   0  0  0  0  0
   -4.8421   -8.3034  -17.0861 O   0  0  0  0  0
   -4.6583   -9.0510  -19.6268 O   0  0  0  0  0
   -6.4244   -7.1496  -19.2576 O   0  0  0  0  0
   -5.5386   -7.5123  -21.7181 O   0  0  0  0  0
   -7.1700   -5.4734  -21.3647 O   0  0  0  0  0
   -4.6372   -4.8922  -22.0531 O   0  0  0  0  0
   -6.2393   -2.9590  -22.8913 O   0  0  0  0  0
   -5.8747   -3.1716  -20.2746 O   0  0  0  0  0
   -5.0839   -1.0214  -18.4777 O   0  0  0  0  0
   -4.2903    1.3377  -19.8993 O   0  0  0  0  0
   -0.8138    3.3134  -17.7759 O   0  0  0  0  0
   -8.4898   -0.5223  -18.0516 O   0  0  0  0  0
   -7.1006    1.1156  -16.6289 O   0  0  0  0  0
   -3.9108   -2.2350  -21.9732 O   0  0  0  0  0
   -6.4598   -5.9980  -23.8076 O   0  0  0  0  0
   -3.9701   -6.3427  -19.7325 O   0  0  0  0  0
   -2.4785   -8.1171  -18.1812 O   0  0  0  0  0
   -6.2903  -10.7340  -17.0087 O   0  0  0  0  0
   -3.7076  -14.1351  -19.1847 O   0  0  0  0  0
   -1.4137  -17.3646  -16.5328 O   0  0  0  0  0
   -2.0182  -19.3227  -21.6774 O   0  0  0  0  0
   -0.1560  -20.8043  -20.6791 O   0  0  0  0  0
    0.3962  -22.5188  -18.2835 O   0  0  0  0  0
   -0.2537  -21.9288  -13.8440 O   0  0  0  0  0
   -2.0917  -16.2157  -17.5828 P   0  0  0  0  0
   -3.3919  -13.7816  -17.5572 P   0  0  0  0  0
   -4.9548  -11.5135  -17.6980 P   0  0  0  0  0
   -3.9320   -8.9809  -18.0877 P   0  0  0  0  0
   -5.1789   -7.4879  -20.0508 P   0  0  0  0  0
   -5.9846   -5.9380  -22.1832 P   0  0  0  0  0
   -5.2140   -3.3061  -21.8332 P   0  0  0  0  0
  1 19  1  0  0  0
  2 13  1  0  0  0
  3 14  1  0  0  0
  4 20  1  0  0  0
  5  1  1  0  0  0
  5  6  1  0  0  0
  5 23  1  0  0  0
  6  7  1  0  0  0
  6 52  1  0  0  0
  7  8  1  0  0  0
  7 51  1  0  0  0
  8 23  1  0  0  0
  8  9  1  0  0  0
  9 24  1  0  0  0
 10 38  1  0  0  0
 11 10  1  0  0  0
 11 39  1  0  0  0
 12 39  1  0  0  0
 12  2  1  0  0  0
 12 17  1  0  0  0
 13  3  1  0  0  0
 14 15  1  0  0  0
 16  2  1  0  0  0
 17 18  1  0  0  0
 17 43  1  0  0  0
 18 42  1  0  0  0
 18 11  1  0  0  0
 19  4  1  0  0  0
 20 21  1  0  0  0
 22  1  1  0  0  0
 55 24  1  0  0  0
 55 26  1  0  0  0
 55 50  1  0  0  0
 56 26  1  0  0  0
 56 28  1  0  0  0
 56 49  1  0  0  0
 57 28  1  0  0  0
 57 30  1  0  0  0
 57 48  1  0  0  0
 58 30  1  0  0  0
 58 32  1  0  0  0
 58 47  1  0  0  0
 59 32  1  0  0  0
 59 34  1  0  0  0
 59 46  1  0  0  0
 60 34  1  0  0  0
 60 36  1  0  0  0
 60 45  1  0  0  0
 61 36  1  0  0  0
 61 38  1  0  0  0
 61 44  1  0  0  0
 13 40  2  0  0  0
 14 41  2  0  0  0
 15 16  2  0  0  0
 19 53  2  0  0  0
 20 54  2  0  0  0
 21 22  2  0  0  0
 55 25  2  0  0  0
 56 27  2  0  0  0
 57 29  2  0  0  0
 58 31  2  0  0  0
 59 33  2  0  0  0
 60 35  2  0  0  0
 61 37  2  0  0  0
M  END
> <rmsd>
0.862105727

$$$$
CHEMBL424932 PubChem-44413929


 93104  0  0  0  0  0  0  0  0999 V2000
   -7.0609  -13.5936  -20.1586 N   0  0  0  0  0
   -5.2371  -12.9839  -21.5612 N   0  0  0  0  0
   -6.8724  -15.3650  -18.5150 N   0  0  0  0  0
   -4.0610  -15.5825  -19.5224 N   0  0  0  0  0
   -3.2351  -14.2840  -21.1848 N   0  0  0  0  0
   -4.2138   -6.1859  -18.3198 N   0  0  0  0  0
   -2.5844   -7.8962  -17.7558 N   0  0  0  0  0
   -0.9220   -7.1799  -16.2110 N   0  0  0  0  0
   -3.3354   -4.5542  -17.0080 N   0  0  0  0  0
   -0.8922   -4.9258  -15.3210 N   0  0  0  0  0
   -4.3609    0.1925  -18.6700 N   0  0  0  0  0
   -2.8046    1.1863  -17.1111 N   0  0  0  0  0
   -1.2049    2.6212  -18.1314 N   0  0  0  0  0
   -3.5263    1.1552  -20.5415 N   0  0  0  0  0
   -1.1696    2.9978  -20.5279 N   0  0  0  0  0
   -8.7681    7.1065  -17.9688 N   0  0  0  0  0
   -9.4513    8.9200  -19.4131 N   0  0  0  0  0
  -11.0882   10.3520  -18.4514 N   0  0  0  0  0
  -10.1154    7.6252  -16.2242 N   0  0  0  0  0
  -11.9748    9.9698  -16.2274 N   0  0  0  0  0
   -6.5303  -12.8065  -21.1503 C   0  0  0  0  0
   -4.5123  -13.9600  -20.9631 C   0  0  0  0  0
   -5.0060  -14.7376  -19.9764 C   0  0  0  0  0
   -6.3161  -14.5650  -19.5519 C   0  0  0  0  0
   -2.9747  -15.2719  -20.2867 C   0  0  0  0  0
   -2.2959  -13.6288  -22.0927 C   0  0  0  0  0
   -1.6815  -12.3840  -21.4782 C   0  0  0  0  0
   -3.3162   -9.4203  -20.6757 C   0  0  0  0  0
   -4.5743   -8.5761  -20.5973 C   0  0  0  0  0
   -4.3834   -7.3018  -21.3777 C   0  0  0  0  0
   -5.2132   -6.3315  -20.6114 C   0  0  0  0  0
   -5.1706   -6.8887  -19.1899 C   0  0  0  0  0
   -3.1127   -6.6463  -17.7043 C   0  0  0  0  0
   -1.4750   -8.1575  -16.9991 C   0  0  0  0  0
   -1.4621   -5.9259  -16.1586 C   0  0  0  0  0
   -2.5910   -5.6709  -16.9283 C   0  0  0  0  0
   -4.3317   -4.9089  -17.8670 C   0  0  0  0  0
   -6.8495   -3.2023  -19.4746 C   0  0  0  0  0
   -6.6464   -2.2296  -18.3219 C   0  0  0  0  0
   -7.4161   -0.9520  -18.5321 C   0  0  0  0  0
   -6.6148    0.0465  -17.7458 C   0  0  0  0  0
   -5.2211   -0.5636  -17.7674 C   0  0  0  0  0
   -3.3181    0.9601  -18.3446 C   0  0  0  0  0
   -1.7318    2.0284  -17.0108 C   0  0  0  0  0
   -1.7329    2.3896  -19.3693 C   0  0  0  0  0
   -2.8203    1.5331  -19.4596 C   0  0  0  0  0
   -4.4739    0.3268  -20.0171 C   0  0  0  0  0
   -7.1322    3.3207  -17.4121 C   0  0  0  0  0
   -6.7594    4.4716  -18.3323 C   0  0  0  0  0
   -5.9467    5.5010  -17.5862 C   0  0  0  0  0
   -6.3639    6.7979  -18.2131 C   0  0  0  0  0
   -7.7307    6.4775  -18.7785 C   0  0  0  0  0
   -9.5059    8.1746  -18.2833 C   0  0  0  0  0
  -10.2602   10.0204  -19.4939 C   0  0  0  0  0
  -11.1338    9.5976  -17.3137 C   0  0  0  0  0
  -10.3090    8.4843  -17.2431 C   0  0  0  0  0
   -9.1540    6.7849  -16.7053 C   0  0  0  0  0
   -0.3457  -12.3129  -22.1558 C   0  0  0  0  0
   -0.1683  -13.6767  -22.7957 C   0  0  0  0  0
    1.1256  -14.2979  -22.2978 C   0  0  0  0  0
   -1.4840  -12.5568  -20.1027 O   0  0  0  0  0
   -0.9406  -10.0543  -19.5560 O   0  0  0  0  0
   -3.5148  -10.6412  -20.0246 O   0  0  0  0  0
   -4.8736   -8.2684  -19.2547 O   0  0  0  0  0
   -4.6958   -5.0346  -20.7164 O   0  0  0  0  0
   -5.2877   -3.6767  -22.8715 O   0  0  0  0  0
   -6.2407   -2.7261  -20.6397 O   0  0  0  0  0
   -5.2839   -1.9117  -18.1766 O   0  0  0  0  0
   -7.0793    0.1312  -16.4231 O   0  0  0  0  0
   -7.5284    2.2019  -14.8719 O   0  0  0  0  0
   -5.9769    2.6733  -16.9656 O   0  0  0  0  0
   -7.9294    5.0810  -18.8229 O   0  0  0  0  0
   -5.5088    7.1556  -19.2638 O   0  0  0  0  0
   -4.2416    8.8042  -17.6481 O   0  0  0  0  0
   -4.0452    9.2958  -20.2066 O   0  0  0  0  0
   -6.3847    9.7535  -18.8193 O   0  0  0  0  0
   -4.5789    5.2596  -17.7426 O   0  0  0  0  0
   -5.1296    1.2015  -14.8035 O   0  0  0  0  0
   -8.7213   -1.0750  -18.0463 O   0  0  0  0  0
   -7.2917   -4.9851  -21.8312 O   0  0  0  0  0
   -4.8906   -7.4504  -22.6683 O   0  0  0  0  0
   -2.2137  -11.4015  -17.7213 O   0  0  0  0  0
   -0.3846  -11.3371  -23.1527 O   0  0  0  0  0
   -1.2570  -14.5021  -22.4561 O   0  0  0  0  0
    1.4103  -15.4503  -23.0325 O   0  0  0  0  0
    3.4192  -17.0933  -23.3690 O   0  0  0  0  0
    2.8745  -16.4366  -20.8963 O   0  0  0  0  0
    4.0467  -14.6567  -22.6577 O   0  0  0  0  0
   -2.0094  -11.1142  -19.3747 P   0  0  0  0  0
   -5.8659   -4.1095  -21.5431 P   0  0  0  0  0
   -6.4721    1.5790  -15.7598 P   0  0  0  0  0
   -5.0271    8.7507  -18.9413 P   0  0  0  0  0
    2.9476  -15.9391  -22.5123 P   0  0  0  0  0
  5 22  1  0  0  0
  6 33  1  0  0  0
 11 43  1  0  0  0
 16 53  1  0  0  0
 21  2  1  0  0  0
 22 23  1  0  0  0
 23  4  1  0  0  0
 24  3  1  0  0  0
 24  1  1  0  0  0
 25  5  1  0  0  0
 26  5  1  0  0  0
 26 27  1  0  0  0
 26 84  1  0  0  0
 27 61  1  0  0  0
 27 58  1  0  0  0
 28 63  1  0  0  0
 29 28  1  0  0  0
 29 30  1  0  0  0
 29 64  1  0  0  0
 30 31  1  0  0  0
 30 81  1  0  0  0
 31 32  1  0  0  0
 31 65  1  0  0  0
 32  6  1  0  0  0
 32 64  1  0  0  0
 34  7  1  0  0  0
 35  8  1  0  0  0
 35 10  1  0  0  0
 36  9  1  0  0  0
 36 33  1  0  0  0
 37  6  1  0  0  0
 38 67  1  0  0  0
 39 38  1  0  0  0
 39 40  1  0  0  0
 39 68  1  0  0  0
 40 41  1  0  0  0
 40 79  1  0  0  0
 41 42  1  0  0  0
 41 69  1  0  0  0
 42 11  1  0  0  0
 42 68  1  0  0  0
 44 12  1  0  0  0
 45 13  1  0  0  0
 45 15  1  0  0  0
 46 14  1  0  0  0
 46 43  1  0  0  0
 47 11  1  0  0  0
 48 71  1  0  0  0
 49 48  1  0  0  0
 49 50  1  0  0  0
 49 72  1  0  0  0
 50 51  1  0  0  0
 50 77  1  0  0  0
 51 52  1  0  0  0
 51 73  1  0  0  0
 52 16  1  0  0  0
 52 72  1  0  0  0
 54 17  1  0  0  0
 55 18  1  0  0  0
 55 20  1  0  0  0
 56 19  1  0  0  0
 56 53  1  0  0  0
 57 16  1  0  0  0
 58 83  1  0  0  0
 58 59  1  0  0  0
 59 84  1  0  0  0
 59 60  1  0  0  0
 60 85  1  0  0  0
 89 61  1  0  0  0
 89 63  1  0  0  0
 89 82  1  0  0  0
 90 65  1  0  0  0
 90 67  1  0  0  0
 90 80  1  0  0  0
 91 69  1  0  0  0
 91 71  1  0  0  0
 91 78  1  0  0  0
 92 73  1  0  0  0
 92 75  1  0  0  0
 92 76  1  0  0  0
 93 85  1  0  0  0
 93 87  1  0  0  0
 93 88  1  0  0  0
 21  1  2  0  0  0
 22  2  2  0  0  0
 23 24  2  0  0  0
 25  4  2  0  0  0
 33  7  2  0  0  0
 34  8  2  0  0  0
 35 36  2  0  0  0
 37  9  2  0  0  0
 43 12  2  0  0  0
 44 13  2  0  0  0
 45 46  2  0  0  0
 47 14  2  0  0  0
 53 17  2  0  0  0
 54 18  2  0  0  0
 55 56  2  0  0  0
 57 19  2  0  0  0
 89 62  2  0  0  0
 90 66  2  0  0  0
 91 70  2  0  0  0
 92 74  2  0  0  0
 93 86  2  0  0  0
M  END
> <rmsd>
0.559890985

$$$$
CHEMBL4116747 PubChem-137630527


 84 90  0  0  0  0  0  0  0  0999 V2000
   -0.7882    4.6780  -17.0491 O   0  0  0  0  0
   -1.5488    5.0187  -19.5183 O   0  0  0  0  0
    0.8174    4.5593  -19.0862 O   0  0  0  0  0
   -0.8693    2.5739  -18.8517 O   0  0  0  0  0
   -5.1490    2.7041  -16.5220 O   0  0  0  0  0
   -8.5831    8.1493  -13.2668 O   0  0  0  0  0
  -10.9228    9.1876  -12.7960 O   0  0  0  0  0
   -9.9435    9.8779   -8.9731 O   0  0  0  0  0
   -5.5966    7.9417   -9.4663 O   0  0  0  0  0
   -5.9850    8.6302   -6.9309 O   0  0  0  0  0
   -4.3976    9.9276   -8.2820 O   0  0  0  0  0
   -3.6776    7.5657   -7.5152 O   0  0  0  0  0
  -14.6834   12.6594   -5.6446 O   0  0  0  0  0
  -15.3694   14.2250   -3.6570 O   0  0  0  0  0
  -13.2139   14.6407   -4.7502 O   0  0  0  0  0
  -13.4184   12.5707   -3.1888 O   0  0  0  0  0
  -15.7204   11.1968   -7.7502 O   0  0  0  0  0
  -17.9674   10.3829   -8.8228 O   0  0  0  0  0
  -16.1323    8.7669   -8.6563 O   0  0  0  0  0
  -15.9625   10.6323  -10.4656 O   0  0  0  0  0
  -12.7356   10.4633  -11.2471 O   0  0  0  0  0
  -14.2626   12.1868  -12.5117 O   0  0  0  0  0
  -12.6584   13.0571  -10.8827 O   0  0  0  0  0
  -11.7503   12.2028  -13.1690 O   0  0  0  0  0
   -6.4869    0.4859  -16.5930 O   0  0  0  0  0
   -3.4978   -1.3710  -18.5049 O   0  0  0  0  0
   -4.5512   -7.7064  -19.0644 O   0  0  0  0  0
   -3.5641  -10.1378  -19.1511 O   0  0  0  0  0
   -2.3526   -8.4791  -17.8273 O   0  0  0  0  0
   -2.2173   -8.3104  -20.4302 O   0  0  0  0  0
   -6.8136   -6.2217  -19.6463 O   0  0  0  0  0
   -8.6210   -4.3072  -19.6117 O   0  0  0  0  0
   -7.5458   -4.8550  -21.7506 O   0  0  0  0  0
   -9.3113   -6.5067  -20.8069 O   0  0  0  0  0
   -6.7244   -2.2640  -17.0661 O   0  0  0  0  0
   -8.6610   -0.8929  -15.8879 O   0  0  0  0  0
   -8.6766   -1.0363  -18.3307 O   0  0  0  0  0
   -9.3415   -3.1389  -16.9619 O   0  0  0  0  0
   -0.5879    4.2475  -18.6619 S   0  0  0  0  0
   -4.9404    8.5597   -8.0176 S   0  0  0  0  0
  -14.1733   13.5801   -4.2990 S   0  0  0  0  0
  -16.4780   10.2042   -8.9193 S   0  0  0  0  0
  -12.8847   12.0169  -11.9424 S   0  0  0  0  0
   -3.1501   -8.6909  -19.0788 S   0  0  0  0  0
   -8.0760   -5.4175  -20.4667 S   0  0  0  0  0
   -8.3637   -1.7763  -17.0606 S   0  0  0  0  0
   -2.0387    1.9430  -18.4115 C   0  0  0  0  0
   -3.0255    2.6369  -17.7047 C   0  0  0  0  0
   -4.1961    1.9943  -17.2661 C   0  0  0  0  0
   -4.8829    3.9978  -15.9853 C   0  0  0  0  0
   -6.0047    4.4567  -15.1099 C   0  0  0  0  0
   -6.6982    3.5615  -14.2850 C   0  0  0  0  0
   -7.7182    4.0282  -13.4522 C   0  0  0  0  0
   -8.0271    5.3954  -13.4183 C   0  0  0  0  0
   -7.3022    6.2988  -14.2072 C   0  0  0  0  0
   -7.5741    7.7754  -14.2042 C   0  0  0  0  0
   -8.3375    8.3992  -11.9132 C   0  0  0  0  0
   -9.3261    9.0235  -11.1098 C   0  0  0  0  0
  -10.5956    9.3982  -11.5961 C   0  0  0  0  0
  -11.5092   10.0278  -10.7420 C   0  0  0  0  0
  -11.1555   10.2335   -9.3934 C   0  0  0  0  0
   -9.0365    9.3065   -9.7555 C   0  0  0  0  0
   -7.7915    8.9770   -9.2198 C   0  0  0  0  0
   -6.8261    8.3343  -10.0002 C   0  0  0  0  0
   -7.1038    8.0497  -11.3391 C   0  0  0  0  0
  -12.0828   10.8469   -8.4168 C   0  0  0  0  0
  -13.4690   10.7287   -8.5520 C   0  0  0  0  0
  -14.3336   11.3188   -7.6218 C   0  0  0  0  0
  -13.8044   12.0427   -6.5409 C   0  0  0  0  0
  -12.4175   12.1324   -6.3836 C   0  0  0  0  0
  -11.5650   11.5333   -7.3112 C   0  0  0  0  0
   -6.2965    5.8222  -15.0499 C   0  0  0  0  0
   -4.3941    0.6250  -17.5757 C   0  0  0  0  0
   -5.5482   -0.0944  -17.2001 C   0  0  0  0  0
   -5.6364   -1.4733  -17.4815 C   0  0  0  0  0
   -4.5563   -2.0897  -18.1471 C   0  0  0  0  0
   -3.3776   -0.0760  -18.2581 C   0  0  0  0  0
   -2.2176    0.5845  -18.6688 C   0  0  0  0  0
   -4.5459   -3.5382  -18.4387 C   0  0  0  0  0
   -5.6824   -4.1880  -18.9238 C   0  0  0  0  0
   -5.6821   -5.5732  -19.1463 C   0  0  0  0  0
   -4.5252   -6.3217  -18.8718 C   0  0  0  0  0
   -3.3714   -5.6630  -18.4221 C   0  0  0  0  0
   -3.3813   -4.2800  -18.2186 C   0  0  0  0  0
 39  1  1  0  0  0
 39  4  1  0  0  0
 40  9  1  0  0  0
 40 12  1  0  0  0
 41 13  1  0  0  0
 41 16  1  0  0  0
 42 17  1  0  0  0
 42 20  1  0  0  0
 43 21  1  0  0  0
 43 24  1  0  0  0
 44 27  1  0  0  0
 44 30  1  0  0  0
 45 31  1  0  0  0
 45 34  1  0  0  0
 46 35  1  0  0  0
 46 38  1  0  0  0
 47  4  1  0  0  0
 48 49  1  0  0  0
 49  5  1  0  0  0
 50  5  1  0  0  0
 50 51  1  0  0  0
 52 53  1  0  0  0
 54 55  1  0  0  0
 56 55  1  0  0  0
 56  6  1  0  0  0
 57  6  1  0  0  0
 58 59  1  0  0  0
 59 60  1  0  0  0
 60 21  1  0  0  0
 61  8  1  0  0  0
 61 66  1  0  0  0
 62  8  1  0  0  0
 62 58  1  0  0  0
 63 64  1  0  0  0
 64  9  1  0  0  0
 65 57  1  0  0  0
 67 68  1  0  0  0
 68 17  1  0  0  0
 69 70  1  0  0  0
 69 13  1  0  0  0
 71 66  1  0  0  0
 72 51  1  0  0  0
 73 74  1  0  0  0
 74 75  1  0  0  0
 75 35  1  0  0  0
 76 26  1  0  0  0
 76 79  1  0  0  0
 77 26  1  0  0  0
 77 73  1  0  0  0
 78 47  1  0  0  0
 80 81  1  0  0  0
 81 31  1  0  0  0
 82 83  1  0  0  0
 82 27  1  0  0  0
 84 79  1  0  0  0
 39  2  2  0  0  0
 39  3  2  0  0  0
 40 10  2  0  0  0
 40 11  2  0  0  0
 41 14  2  0  0  0
 41 15  2  0  0  0
 42 18  2  0  0  0
 42 19  2  0  0  0
 43 22  2  0  0  0
 43 23  2  0  0  0
 44 28  2  0  0  0
 44 29  2  0  0  0
 45 32  2  0  0  0
 45 33  2  0  0  0
 46 36  2  0  0  0
 46 37  2  0  0  0
 47 48  2  0  0  0
 49 73  2  0  0  0
 51 52  2  0  0  0
 53 54  2  0  0  0
 55 72  2  0  0  0
 57 58  2  0  0  0
 59  7  2  0  0  0
 60 61  2  0  0  0
 62 63  2  0  0  0
 64 65  2  0  0  0
 66 67  2  0  0  0
 68 69  2  0  0  0
 70 71  2  0  0  0
 74 25  2  0  0  0
 75 76  2  0  0  0
 77 78  2  0  0  0
 79 80  2  0  0  0
 81 82  2  0  0  0
 83 84  2  0  0  0
M  END
> <rmsd>
0.727693617

$$$$
CHEMBL405285 PubChem-44413871


 93104  0  0  0  0  0  0  0  0999 V2000
   -3.6536   18.3107  -19.9725 N   0  0  0  0  0
   -3.2378   17.5569  -22.1903 N   0  0  0  0  0
   -2.6977   17.1988  -18.0386 N   0  0  0  0  0
   -1.4829   15.3735  -20.0806 N   0  0  0  0  0
   -1.8322   15.5881  -22.3118 N   0  0  0  0  0
   -4.0308    7.4498  -22.0280 N   0  0  0  0  0
   -6.4161    7.0689  -21.8877 N   0  0  0  0  0
   -7.1332    5.0716  -22.9706 N   0  0  0  0  0
   -3.5323    5.5917  -23.2188 N   0  0  0  0  0
   -5.5727    3.6027  -24.1067 N   0  0  0  0  0
   -3.6705    1.5598  -18.5815 N   0  0  0  0  0
   -2.8998   -0.5119  -19.5558 N   0  0  0  0  0
   -1.3554   -1.6949  -18.1883 N   0  0  0  0  0
   -2.4483    1.4508  -16.6810 N   0  0  0  0  0
   -0.6153   -0.8271  -16.0477 N   0  0  0  0  0
   -5.7795   -5.6155  -21.2382 N   0  0  0  0  0
   -7.9970   -5.5385  -22.1941 N   0  0  0  0  0
   -8.0347   -5.7273  -24.5658 N   0  0  0  0  0
   -4.6553   -5.8660  -23.1927 N   0  0  0  0  0
   -6.0033   -5.9953  -25.8637 N   0  0  0  0  0
   -3.8215   18.4437  -21.3289 C   0  0  0  0  0
   -2.4940   16.5537  -21.6603 C   0  0  0  0  0
   -2.2950   16.4160  -20.3312 C   0  0  0  0  0
   -2.8906   17.3059  -19.4459 C   0  0  0  0  0
   -1.1874   14.9074  -21.3269 C   0  0  0  0  0
   -1.6132   15.4572  -23.7560 C   0  0  0  0  0
   -1.5539   13.9993  -24.1705 C   0  0  0  0  0
   -0.9989   10.7184  -21.6743 C   0  0  0  0  0
   -2.2442   10.1715  -20.9993 C   0  0  0  0  0
   -1.9423    9.1260  -19.9445 C   0  0  0  0  0
   -3.2145    8.3405  -19.9041 C   0  0  0  0  0
   -3.8863    8.6644  -21.2339 C   0  0  0  0  0
   -5.1584    6.7841  -22.3008 C   0  0  0  0  0
   -7.4128    6.1994  -22.2378 C   0  0  0  0  0
   -5.8609    4.7852  -23.3675 C   0  0  0  0  0
   -4.8587    5.6749  -23.0100 C   0  0  0  0  0
   -3.0480    6.7017  -22.5947 C   0  0  0  0  0
   -5.3923    5.0703  -18.7736 C   0  0  0  0  0
   -5.5210    4.0699  -19.9099 C   0  0  0  0  0
   -6.6941    3.1596  -19.6471 C   0  0  0  0  0
   -6.0325    1.9768  -19.0019 C   0  0  0  0  0
   -4.6370    1.9943  -19.5811 C   0  0  0  0  0
   -2.9287    0.4518  -18.5999 C   0  0  0  0  0
   -2.1013   -1.5994  -19.3371 C   0  0  0  0  0
   -1.3838   -0.7102  -17.2398 C   0  0  0  0  0
   -2.2025    0.3825  -17.4643 C   0  0  0  0  0
   -3.3685    2.1561  -17.3944 C   0  0  0  0  0
   -5.8229   -2.0873  -19.0025 C   0  0  0  0  0
   -5.9732   -3.5474  -18.6155 C   0  0  0  0  0
   -4.6203   -4.2037  -18.4950 C   0  0  0  0  0
   -4.8751   -5.6127  -18.9341 C   0  0  0  0  0
   -6.1040   -5.4672  -19.8196 C   0  0  0  0  0
   -6.6479   -5.6424  -22.2534 C   0  0  0  0  0
   -8.6921   -5.5810  -23.3716 C   0  0  0  0  0
   -6.6750   -5.8375  -24.6174 C   0  0  0  0  0
   -5.9793   -5.7929  -23.4171 C   0  0  0  0  0
   -4.5627   -5.7566  -21.8353 C   0  0  0  0  0
   -2.2310   13.9666  -25.5145 C   0  0  0  0  0
   -2.6405   15.4227  -25.7264 C   0  0  0  0  0
   -3.9853   15.5789  -26.4327 C   0  0  0  0  0
   -0.2201   13.5900  -24.2821 O   0  0  0  0  0
   -0.3635   11.0003  -24.6483 O   0  0  0  0  0
   -1.3214   11.8868  -22.3647 O   0  0  0  0  0
   -3.1199    9.6139  -21.9405 O   0  0  0  0  0
   -4.0090    8.7959  -18.8448 O   0  0  0  0  0
   -6.3903    7.7361  -18.6267 O   0  0  0  0  0
   -4.4319    6.0293  -19.0978 O   0  0  0  0  0
   -4.3361    3.3047  -20.0033 O   0  0  0  0  0
   -6.6971    0.7824  -19.3089 O   0  0  0  0  0
   -6.6167    0.7452  -16.6466 O   0  0  0  0  0
   -5.5763   -1.3131  -17.8681 O   0  0  0  0  0
   -6.7165   -4.2146  -19.6026 O   0  0  0  0  0
   -5.1881   -6.4348  -17.8444 O   0  0  0  0  0
   -2.8105   -7.5088  -17.5415 O   0  0  0  0  0
   -4.8421   -9.0525  -17.0516 O   0  0  0  0  0
   -4.1669   -8.3349  -19.6267 O   0  0  0  0  0
   -4.1496   -4.1330  -17.1825 O   0  0  0  0  0
   -8.3066   -0.8751  -17.7932 O   0  0  0  0  0
   -7.2673    2.8029  -20.8728 O   0  0  0  0  0
   -4.7369    7.2899  -16.6520 O   0  0  0  0  0
   -0.9068    8.2800  -20.3538 O   0  0  0  0  0
    1.4088   11.8436  -22.9160 O   0  0  0  0  0
   -3.3425   13.1184  -25.4299 O   0  0  0  0  0
   -2.6584   16.0574  -24.4742 O   0  0  0  0  0
   -4.2704   16.9342  -26.6311 O   0  0  0  0  0
   -6.4775   16.6983  -25.2330 O   0  0  0  0  0
   -6.6379   16.0034  -27.7528 O   0  0  0  0  0
   -6.4123   18.6410  -26.9759 O   0  0  0  0  0
   -0.1390   12.0462  -23.5759 P   0  0  0  0  0
   -4.9311    7.4632  -18.3246 P   0  0  0  0  0
   -6.7877   -0.1272  -17.8698 P   0  0  0  0  0
   -4.2104   -7.8142  -18.0149 P   0  0  0  0  0
   -5.9624   17.0519  -26.6096 P   0  0  0  0  0
  5 22  1  0  0  0
  6 33  1  0  0  0
 11 43  1  0  0  0
 16 53  1  0  0  0
 21  2  1  0  0  0
 22 23  1  0  0  0
 23  4  1  0  0  0
 24  3  1  0  0  0
 24  1  1  0  0  0
 25  5  1  0  0  0
 26  5  1  0  0  0
 26 27  1  0  0  0
 26 84  1  0  0  0
 27 61  1  0  0  0
 27 58  1  0  0  0
 28 63  1  0  0  0
 29 28  1  0  0  0
 29 30  1  0  0  0
 29 64  1  0  0  0
 30 31  1  0  0  0
 30 81  1  0  0  0
 31 32  1  0  0  0
 31 65  1  0  0  0
 32  6  1  0  0  0
 32 64  1  0  0  0
 34  7  1  0  0  0
 35  8  1  0  0  0
 35 10  1  0  0  0
 36  9  1  0  0  0
 36 33  1  0  0  0
 37  6  1  0  0  0
 38 67  1  0  0  0
 39 38  1  0  0  0
 39 40  1  0  0  0
 39 68  1  0  0  0
 40 41  1  0  0  0
 40 79  1  0  0  0
 41 42  1  0  0  0
 41 69  1  0  0  0
 42 11  1  0  0  0
 42 68  1  0  0  0
 44 12  1  0  0  0
 45 13  1  0  0  0
 45 15  1  0  0  0
 46 14  1  0  0  0
 46 43  1  0  0  0
 47 11  1  0  0  0
 48 71  1  0  0  0
 49 48  1  0  0  0
 49 50  1  0  0  0
 49 72  1  0  0  0
 50 51  1  0  0  0
 50 77  1  0  0  0
 51 52  1  0  0  0
 51 73  1  0  0  0
 52 16  1  0  0  0
 52 72  1  0  0  0
 54 17  1  0  0  0
 55 18  1  0  0  0
 55 20  1  0  0  0
 56 19  1  0  0  0
 56 53  1  0  0  0
 57 16  1  0  0  0
 58 83  1  0  0  0
 58 59  1  0  0  0
 59 84  1  0  0  0
 59 60  1  0  0  0
 60 85  1  0  0  0
 89 61  1  0  0  0
 89 63  1  0  0  0
 89 82  1  0  0  0
 90 65  1  0  0  0
 90 67  1  0  0  0
 90 80  1  0  0  0
 91 69  1  0  0  0
 91 71  1  0  0  0
 91 78  1  0  0  0
 92 73  1  0  0  0
 92 75  1  0  0  0
 92 76  1  0  0  0
 93 85  1  0  0  0
 93 87  1  0  0  0
 93 88  1  0  0  0
 21  1  2  0  0  0
 22  2  2  0  0  0
 23 24  2  0  0  0
 25  4  2  0  0  0
 33  7  2  0  0  0
 34  8  2  0  0  0
 35 36  2  0  0  0
 37  9  2  0  0  0
 43 12  2  0  0  0
 44 13  2  0  0  0
 45 46  2  0  0  0
 47 14  2  0  0  0
 53 17  2  0  0  0
 54 18  2  0  0  0
 55 56  2  0  0  0
 57 19  2  0  0  0
 89 62  2  0  0  0
 90 66  2  0  0  0
 91 70  2  0  0  0
 92 74  2  0  0  0
 93 86  2  0  0  0
M  END
> <rmsd>
0.780604482

$$$$
CHEMBL607625


 67 75  0  0  0  0  0  0  0  0999 V2000
   -3.9886    0.6071  -17.3642 N   0  0  0  0  0
   -7.0446   -8.0589  -19.0618 N   0  0  0  0  0
   -8.4908   -8.8227  -17.4947 N   0  0  0  0  0
  -10.3018   -9.9606  -20.4571 N   0  0  0  0  0
   -8.2843   -8.8150  -20.9940 N   0  0  0  0  0
   -8.5962    8.3515  -18.2340 N   0  0  0  0  0
  -10.2904    9.8420  -18.4216 N   0  0  0  0  0
  -10.7628    8.9810  -14.9025 N   0  0  0  0  0
   -8.9346    7.8230  -15.8939 N   0  0  0  0  0
   -1.7683    1.0625  -17.4904 N   0  0  0  0  0
   -2.7464    2.4780  -20.7106 N   0  0  0  0  0
   -4.5865    1.5548  -19.5195 N   0  0  0  0  0
   -5.2373    0.0451  -16.8419 C   0  0  0  0  0
   -6.4660    0.5574  -17.5724 C   0  0  0  0  0
   -6.8534   -0.6286  -18.4117 C   0  0  0  0  0
   -6.3171   -1.7957  -17.6189 C   0  0  0  0  0
   -5.9174   -2.9322  -18.5405 C   0  0  0  0  0
   -5.6416   -6.0701  -19.2720 C   0  0  0  0  0
   -5.8452   -7.5144  -19.6894 C   0  0  0  0  0
   -8.0916   -8.6265  -19.6660 C   0  0  0  0  0
   -8.9521   -9.0844  -18.7322 C   0  0  0  0  0
   -7.3047   -8.1911  -17.7345 C   0  0  0  0  0
  -10.0923   -9.7731  -19.1203 C   0  0  0  0  0
   -9.4105   -9.4883  -21.3876 C   0  0  0  0  0
   -3.7621   -7.4067  -18.8107 C   0  0  0  0  0
   -4.4564   -6.1562  -18.3492 C   0  0  0  0  0
   -3.0268   -8.0554  -17.6500 C   0  0  0  0  0
   -6.8009    4.7258  -16.6478 C   0  0  0  0  0
   -6.5782    5.5346  -17.9120 C   0  0  0  0  0
   -7.4781    7.4920  -18.5986 C   0  0  0  0  0
   -9.2216    8.4627  -17.0543 C   0  0  0  0  0
  -10.2350    9.3468  -17.1687 C   0  0  0  0  0
   -9.2673    9.2011  -19.0553 C   0  0  0  0  0
  -11.0322    9.6339  -16.0733 C   0  0  0  0  0
   -9.7230    8.0885  -14.8085 C   0  0  0  0  0
   -6.2380    7.8850  -17.8389 C   0  0  0  0  0
   -5.5055    6.5782  -17.6760 C   0  0  0  0  0
   -3.7223    1.2223  -18.5279 C   0  0  0  0  0
   -2.4001    1.4977  -18.5961 C   0  0  0  0  0
   -2.7758    0.5129  -16.7547 C   0  0  0  0  0
   -1.8797    2.1381  -19.7099 C   0  0  0  0  0
   -4.0855    2.1886  -20.6211 C   0  0  0  0  0
   -5.1909   -1.3671  -16.8971 O   0  0  0  0  0
   -7.0559   -3.5548  -19.0585 O   0  0  0  0  0
   -7.7679   -4.8027  -21.2468 O   0  0  0  0  0
   -5.3330   -5.3117  -20.4064 O   0  0  0  0  0
  -10.9918  -10.2694  -18.1856 O   0  0  0  0  0
   -4.7254   -8.2903  -19.3219 O   0  0  0  0  0
   -3.6064   -5.0529  -18.4808 O   0  0  0  0  0
   -1.7016   -8.3177  -18.0273 O   0  0  0  0  0
   -1.7543  -10.3816  -16.3863 O   0  0  0  0  0
    0.0774  -10.4194  -18.2454 O   0  0  0  0  0
   -2.5820  -10.8172  -18.8407 O   0  0  0  0  0
   -6.0150   -2.8938  -21.5360 O   0  0  0  0  0
   -8.2398   -0.7297  -18.5773 O   0  0  0  0  0
   -7.4580    0.8517  -16.6251 O   0  0  0  0  0
   -8.5646    2.6647  -18.1645 O   0  0  0  0  0
   -6.4055    3.4067  -16.8638 O   0  0  0  0  0
   -7.7832    6.1549  -18.2916 O   0  0  0  0  0
  -12.0837   10.5380  -16.1576 O   0  0  0  0  0
   -4.5068    6.4271  -18.6436 O   0  0  0  0  0
   -5.4963    8.8251  -18.5591 O   0  0  0  0  0
   -8.8393    2.9862  -15.5796 O   0  0  0  0  0
   -0.5238    2.4197  -19.8148 O   0  0  0  0  0
   -6.5769   -4.1657  -20.5680 P   0  0  0  0  0
   -1.5041   -9.9938  -17.8287 P   0  0  0  0  0
   -7.8359    2.4893  -16.8503 P   0  0  0  0  0
  1 38  1  0  0  0
  2 20  1  0  0  0
  6 31  1  0  0  0
 13  1  1  0  0  0
 13 14  1  0  0  0
 13 43  1  0  0  0
 14 15  1  0  0  0
 14 56  1  0  0  0
 15 16  1  0  0  0
 15 55  1  0  0  0
 16 43  1  0  0  0
 16 17  1  0  0  0
 17 44  1  0  0  0
 18 46  1  0  0  0
 18 19  1  0  0  0
 19  2  1  0  0  0
 19 48  1  0  0  0
 20  5  1  0  0  0
 21  3  1  0  0  0
 21 23  1  0  0  0
 22  2  1  0  0  0
 23 47  1  0  0  0
 24  4  1  0  0  0
 25 48  1  0  0  0
 25 26  1  0  0  0
 25 27  1  0  0  0
 26 49  1  0  0  0
 26 18  1  0  0  0
 27 50  1  0  0  0
 28 58  1  0  0  0
 29 28  1  0  0  0
 29 59  1  0  0  0
 30 59  1  0  0  0
 30  6  1  0  0  0
 30 36  1  0  0  0
 31  9  1  0  0  0
 32  7  1  0  0  0
 32 34  1  0  0  0
 33  6  1  0  0  0
 34 60  1  0  0  0
 35  8  1  0  0  0
 36 37  1  0  0  0
 36 62  1  0  0  0
 37 61  1  0  0  0
 37 29  1  0  0  0
 38 12  1  0  0  0
 39 10  1  0  0  0
 39 41  1  0  0  0
 40  1  1  0  0  0
 41 64  1  0  0  0
 42 11  1  0  0  0
 65 44  1  0  0  0
 65 46  1  0  0  0
 65 54  1  0  0  0
 66 50  1  0  0  0
 66 52  1  0  0  0
 66 53  1  0  0  0
 67 56  1  0  0  0
 67 58  1  0  0  0
 67 63  1  0  0  0
 20 21  2  0  0  0
 22  3  2  0  0  0
 23  4  2  0  0  0
 24  5  2  0  0  0
 31 32  2  0  0  0
 33  7  2  0  0  0
 34  8  2  0  0  0
 35  9  2  0  0  0
 38 39  2  0  0  0
 40 10  2  0  0  0
 41 11  2  0  0  0
 42 12  2  0  0  0
 65 45  2  0  0  0
 66 51  2  0  0  0
 67 57  2  0  0  0
M  END
> <rmsd>
0.717121422

$$$$
CHEMBL375817 PubChem-44418590


 37 40  0  0  0  0  0  0  0  0999 V2000
   -6.7957    0.1298  -16.9313 O   0  0  0  0  0
   -6.5366   -1.6509  -18.8496 O   0  0  0  0  0
   -3.5749   -3.3901  -18.0418 O   0  0  0  0  0
   -6.3035   -4.0323  -19.8370 O   0  0  0  0  0
   -7.2555   -6.4427  -19.3856 O   0  0  0  0  0
   -8.3529   -5.1032  -21.3425 O   0  0  0  0  0
   -8.8063   -4.4444  -18.7057 O   0  0  0  0  0
   -3.0715   -6.1841  -17.5514 O   0  0  0  0  0
   -4.0651   -7.9742  -19.2046 O   0  0  0  0  0
   -1.8949   -8.6532  -17.9165 O   0  0  0  0  0
   -4.3366   -8.4844  -16.6494 O   0  0  0  0  0
   -8.7352    0.0046  -18.6754 O   0  0  0  0  0
   -8.3682   -1.9602  -16.7777 O   0  0  0  0  0
   -7.5799   -0.8462  -17.7799 P   0  0  0  0  0
   -7.6645   -5.0463  -19.7992 P   0  0  0  0  0
   -3.3684   -7.8240  -17.8703 P   0  0  0  0  0
   -5.7650   -2.5092  -18.0570 C   0  0  0  0  0
   -4.2984   -2.1996  -18.2162 C   0  0  0  0  0
   -3.8495   -1.3327  -15.8818 C   0  0  0  0  0
   -3.1452    0.6288  -16.2934 C   0  0  0  0  0
   -3.4312    0.0274  -17.4676 C   0  0  0  0  0
   -2.8150    1.9303  -18.6646 C   0  0  0  0  0
   -2.6706    1.9346  -16.2802 C   0  0  0  0  0
   -2.3049    2.6247  -15.0069 C   0  0  0  0  0
   -0.8500    2.4640  -14.7228 C   0  0  0  0  0
   -0.3830    1.3123  -14.0770 C   0  0  0  0  0
    0.9836    1.1536  -13.8275 C   0  0  0  0  0
    1.8861    2.1440  -14.2273 C   0  0  0  0  0
    1.4221    3.2923  -14.8778 C   0  0  0  0  0
    0.0555    3.4512  -15.1285 C   0  0  0  0  0
   -4.4281   -4.4366  -18.4423 C   0  0  0  0  0
   -5.8605   -3.9435  -18.5107 C   0  0  0  0  0
   -4.3312   -5.5883  -17.4582 C   0  0  0  0  0
   -3.8763   -1.2097  -17.2345 N   0  0  0  0  0
   -3.3963   -0.2042  -15.2654 N   0  0  0  0  0
   -3.2853    0.6460  -18.6648 N   0  0  0  0  0
   -2.5081    2.5607  -17.4844 N   0  0  0  0  0
 14  2  1  0  0  0
 14 12  1  0  0  0
 14 13  1  0  0  0
 15  4  1  0  0  0
 15  6  1  0  0  0
 15  7  1  0  0  0
 16  8  1  0  0  0
 16 10  1  0  0  0
 16 11  1  0  0  0
 17  2  1  0  0  0
 17 18  1  0  0  0
 18 34  1  0  0  0
 18  3  1  0  0  0
 20 35  1  0  0  0
 21 36  1  0  0  0
 21 34  1  0  0  0
 22 37  1  0  0  0
 23 20  1  0  0  0
 24 23  1  0  0  0
 24 25  1  0  0  0
 26 27  1  0  0  0
 28 29  1  0  0  0
 30 25  1  0  0  0
 31  3  1  0  0  0
 31 32  1  0  0  0
 31 33  1  0  0  0
 32  4  1  0  0  0
 32 17  1  0  0  0
 33  8  1  0  0  0
 34 19  1  0  0  0
 14  1  2  0  0  0
 15  5  2  0  0  0
 16  9  2  0  0  0
 19 35  2  0  0  0
 20 21  2  0  0  0
 22 36  2  0  0  0
 23 37  2  0  0  0
 25 26  2  0  0  0
 27 28  2  0  0  0
 29 30  2  0  0  0
M  END
> <rmsd>
0.794767857

$$$$
CHEMBL2057588 PubChem-70688457


 91102  0  0  0  0  0  0  0  0999 V2000
   -0.5013   -9.5077  -16.2311 P   0  0  0  0  0
   -6.5202   -4.0677  -21.5178 P   0  0  0  0  0
   -6.7486    2.1080  -16.3423 P   0  0  0  0  0
   -5.6113    7.6719  -22.2256 P   0  0  0  0  0
    0.5776   -8.5699  -16.7256 O   0  0  0  0  0
   -0.5761  -10.8673  -17.2327 O   0  0  0  0  0
   -0.1324   -9.9946  -14.6541 O   0  0  0  0  0
   -2.3667   -8.2196  -17.5548 O   0  0  0  0  0
   -4.3313   -4.4529  -18.3575 O   0  0  0  0  0
   -5.1353   -4.7604  -20.8100 O   0  0  0  0  0
   -6.1837   -3.6336  -22.9272 O   0  0  0  0  0
   -7.0002   -2.6933  -20.6541 O   0  0  0  0  0
   -9.0438   -0.7664  -18.0533 O   0  0  0  0  0
   -7.2677    0.5123  -16.6424 O   0  0  0  0  0
   -7.9237    2.9064  -15.8287 O   0  0  0  0  0
   -6.1411    2.8475  -17.7468 O   0  0  0  0  0
   -6.0082    4.2668  -20.4576 O   0  0  0  0  0
   -6.3509    6.7671  -20.9929 O   0  0  0  0  0
   -6.4974    7.6519  -23.4478 O   0  0  0  0  0
   -4.1070    7.0090  -22.6305 O   0  0  0  0  0
   -6.6041    9.9096  -21.2630 O   0  0  0  0  0
   -9.1477   10.2711  -19.6536 O   0  0  0  0  0
   -9.5862   11.8015  -17.6021 O   0  0  0  0  0
   -6.6456   12.6485  -18.9262 O   0  0  0  0  0
   -5.8020    6.4210  -17.6737 O   0  0  0  0  0
   -5.5459    2.0717  -15.1535 O   0  0  0  0  0
   -5.7039   -1.9282  -18.2316 O   0  0  0  0  0
   -7.7980   -5.1825  -21.5912 O   0  0  0  0  0
   -4.2253   -7.7359  -19.6463 O   0  0  0  0  0
   -2.0947   -8.6482  -16.2582 C   0  0  0  0  0
   -3.4432   -7.3445  -17.4157 C   0  0  0  0  0
   -3.7760   -6.7327  -18.7667 C   0  0  0  0  0
   -4.8700   -5.7110  -18.6210 C   0  0  0  0  0
   -5.5790   -5.7728  -19.9528 C   0  0  0  0  0
   -7.4239   -3.1471  -19.3996 C   0  0  0  0  0
   -7.0922   -2.1289  -18.3181 C   0  0  0  0  0
   -7.7553   -0.8068  -18.5940 C   0  0  0  0  0
   -6.8293    0.1749  -17.9305 C   0  0  0  0  0
   -5.6104    4.0659  -17.3266 C   0  0  0  0  0
   -6.0748    5.1752  -18.2485 C   0  0  0  0  0
   -5.3440    5.1153  -19.5668 C   0  0  0  0  0
   -5.3633    6.5539  -20.0208 C   0  0  0  0  0
   -5.3854    9.3898  -21.6869 C   0  0  0  0  0
   -6.3001   11.1755  -20.7717 C   0  0  0  0  0
   -7.0673   11.4347  -19.4856 C   0  0  0  0  0
   -8.5437   11.5293  -19.7549 C   0  0  0  0  0
   -9.0243   12.4809  -18.6908 C   0  0  0  0  0
   -7.7564   13.1728  -18.2303 C   0  0  0  0  0
   -7.8407   15.5887  -17.5186 C   0  0  0  0  0
   -7.9616   16.5973  -19.3830 C   0  0  0  0  0
   -8.0201   17.4883  -20.4452 C   0  0  0  0  0
   -7.9823   15.6209  -21.9276 C   0  0  0  0  0
   -7.9133   15.2716  -19.6230 C   0  0  0  0  0
   -5.7430    7.3129  -18.7583 C   0  0  0  0  0
   -3.6121    8.6774  -19.0504 C   0  0  0  0  0
   -3.9963   10.3067  -17.7529 C   0  0  0  0  0
   -4.0131   11.4900  -17.0276 C   0  0  0  0  0
   -6.1212   10.8309  -16.1322 C   0  0  0  0  0
   -5.0282    9.4452  -17.6579 C   0  0  0  0  0
   -5.5212   -0.5903  -17.8292 C   0  0  0  0  0
   -4.4950    0.2133  -20.0008 C   0  0  0  0  0
   -2.6590    1.0180  -19.3109 C   0  0  0  0  0
   -1.4002    1.5763  -19.1439 C   0  0  0  0  0
   -1.6041    1.1498  -16.8075 C   0  0  0  0  0
   -3.3376    0.5498  -18.2434 C   0  0  0  0  0
   -5.1544   -7.1197  -20.5111 C   0  0  0  0  0
   -6.3974   -8.9653  -21.6650 C   0  0  0  0  0
   -8.1305   -9.1977  -20.4639 C   0  0  0  0  0
   -9.3169   -9.5656  -19.8477 C   0  0  0  0  0
   -8.9385   -7.8376  -18.2532 C   0  0  0  0  0
   -7.3932   -8.1859  -19.9540 C   0  0  0  0  0
   -7.8455   14.6108  -18.4610 N   0  0  0  0  0
   -7.9194   16.8379  -18.0615 N   0  0  0  0  0
   -8.0682   18.8924  -20.2343 N   0  0  0  0  0
   -8.0271   16.9753  -21.7099 N   0  0  0  0  0
   -7.9216   14.7499  -20.8761 N   0  0  0  0  0
   -4.8146    8.4097  -18.4728 N   0  0  0  0  0
   -3.0812    9.8555  -18.6278 N   0  0  0  0  0
   -2.9572   12.4412  -17.1385 N   0  0  0  0  0
   -5.0916   11.7334  -16.2256 N   0  0  0  0  0
   -6.0999    9.6709  -16.8571 N   0  0  0  0  0
   -4.5002    0.0386  -18.6539 N   0  0  0  0  0
   -3.3603    0.8280  -20.4433 N   0  0  0  0  0
   -0.6283    2.0313  -20.2532 N   0  0  0  0  0
   -0.8919    1.6278  -17.8831 N   0  0  0  0  0
   -2.8427    0.5962  -16.9839 N   0  0  0  0  0
   -6.3003   -8.0053  -20.7089 N   0  0  0  0  0
   -7.5263   -9.7200  -21.5484 N   0  0  0  0  0
  -10.1201  -10.6272  -20.3506 N   0  0  0  0  0
   -9.7077   -8.8583  -18.7489 N   0  0  0  0  0
   -7.7603   -7.4973  -18.8513 N   0  0  0  0  0
  1  6  1  0  0  0
  1  7  1  0  0  0
  1 30  1  0  0  0
  2 10  1  0  0  0
  2 12  1  0  0  0
  2 28  1  0  0  0
  3 14  1  0  0  0
  3 16  1  0  0  0
  3 26  1  0  0  0
  4 18  1  0  0  0
  4 20  1  0  0  0
  4 43  1  0  0  0
 30  8  1  0  0  0
 31  8  1  0  0  0
 32 31  1  0  0  0
 32 33  1  0  0  0
 32 29  1  0  0  0
 33  9  1  0  0  0
 33 34  1  0  0  0
 34 10  1  0  0  0
 34 66  1  0  0  0
 35 12  1  0  0  0
 36 35  1  0  0  0
 36 37  1  0  0  0
 36 27  1  0  0  0
 37 13  1  0  0  0
 37 38  1  0  0  0
 38 14  1  0  0  0
 38 60  1  0  0  0
 39 16  1  0  0  0
 40 39  1  0  0  0
 40 41  1  0  0  0
 40 25  1  0  0  0
 41 17  1  0  0  0
 41 42  1  0  0  0
 42 18  1  0  0  0
 42 54  1  0  0  0
 43 21  1  0  0  0
 44 21  1  0  0  0
 45 44  1  0  0  0
 45 46  1  0  0  0
 45 24  1  0  0  0
 46 22  1  0  0  0
 46 47  1  0  0  0
 47 23  1  0  0  0
 47 48  1  0  0  0
 48 24  1  0  0  0
 48 72  1  0  0  0
 50 73  1  0  0  0
 51 74  1  0  0  0
 51 75  1  0  0  0
 52 76  1  0  0  0
 53 72  1  0  0  0
 53 50  1  0  0  0
 54 25  1  0  0  0
 54 77  1  0  0  0
 56 78  1  0  0  0
 57 79  1  0  0  0
 57 80  1  0  0  0
 58 81  1  0  0  0
 59 77  1  0  0  0
 59 56  1  0  0  0
 60 27  1  0  0  0
 60 82  1  0  0  0
 62 83  1  0  0  0
 63 84  1  0  0  0
 63 85  1  0  0  0
 64 86  1  0  0  0
 65 82  1  0  0  0
 65 62  1  0  0  0
 66 29  1  0  0  0
 66 87  1  0  0  0
 68 88  1  0  0  0
 69 89  1  0  0  0
 69 90  1  0  0  0
 70 91  1  0  0  0
 71 87  1  0  0  0
 71 68  1  0  0  0
 72 49  1  0  0  0
 77 55  1  0  0  0
 82 61  1  0  0  0
 87 67  1  0  0  0
  1  5  2  0  0  0
  2 11  2  0  0  0
  3 15  2  0  0  0
  4 19  2  0  0  0
 49 73  2  0  0  0
 50 51  2  0  0  0
 52 75  2  0  0  0
 53 76  2  0  0  0
 55 78  2  0  0  0
 56 57  2  0  0  0
 58 80  2  0  0  0
 59 81  2  0  0  0
 61 83  2  0  0  0
 62 63  2  0  0  0
 64 85  2  0  0  0
 65 86  2  0  0  0
 67 88  2  0  0  0
 68 69  2  0  0  0
 70 90  2  0  0  0
 71 91  2  0  0  0
M  END
> <rmsd>
0.419674605

$$$$
CHEMBL2221211 PubChem-71454850


 40 41  0  0  0  0  0  0  0  0999 V2000
   -1.9742   -1.0271  -12.4364 O   0  0  0  0  0
   -3.3300   -2.0544  -14.2002 O   0  0  0  0  0
   -4.4301   -0.2295  -12.6928 O   0  0  0  0  0
   -2.4804    0.3988  -14.5477 O   0  0  0  0  0
   -4.5429   -1.3770  -17.1508 O   0  0  0  0  0
   -4.3208   -3.2614  -18.5100 O   0  0  0  0  0
   -3.4931   -5.9778  -18.2169 O   0  0  0  0  0
   -1.7949   -7.1817  -19.8030 O   0  0  0  0  0
   -3.8326   -8.3965  -19.1603 O   0  0  0  0  0
   -1.9713   -8.0934  -17.3826 O   0  0  0  0  0
   -7.2866   -4.5272  -19.8766 O   0  0  0  0  0
   -8.8062   -6.3698  -20.8986 O   0  0  0  0  0
   -8.0094   -4.5956  -22.3881 O   0  0  0  0  0
   -6.3227   -6.4345  -21.6397 O   0  0  0  0  0
   -5.0170   -2.0344  -21.0517 O   0  0  0  0  0
   -4.5018   -0.7674  -23.2584 O   0  0  0  0  0
   -6.5876   -2.0440  -23.1542 O   0  0  0  0  0
   -6.4394    0.1980  -21.8325 O   0  0  0  0  0
   -7.4711   -1.7052  -18.4713 O   0  0  0  0  0
   -7.6219    0.8069  -19.2239 O   0  0  0  0  0
   -6.9237    0.3319  -16.9123 O   0  0  0  0  0
   -9.4176   -0.0190  -17.5416 O   0  0  0  0  0
   -3.0371   -0.7721  -13.4667 S   0  0  0  0  0
   -2.7804   -7.4289  -18.6948 S   0  0  0  0  0
   -7.6420   -5.4768  -21.2252 S   0  0  0  0  0
   -5.6386   -1.1803  -22.3674 S   0  0  0  0  0
   -7.8145   -0.1078  -18.0436 S   0  0  0  0  0
   -3.5500    0.6525  -15.4100 C   0  0  0  0  0
   -3.0972    0.5437  -16.8289 C   0  0  0  0  0
   -2.1685    1.4653  -17.3291 C   0  0  0  0  0
   -1.7404    1.3846  -18.6561 C   0  0  0  0  0
   -2.2411    0.3841  -19.4911 C   0  0  0  0  0
   -3.1715   -0.5341  -18.9991 C   0  0  0  0  0
   -3.6094   -0.4628  -17.6662 C   0  0  0  0  0
   -5.2288   -2.3642  -17.9199 C   0  0  0  0  0
   -5.0918   -4.3608  -18.9307 C   0  0  0  0  0
   -4.1844   -5.5066  -19.3351 C   0  0  0  0  0
   -6.0162   -3.9893  -20.1047 C   0  0  0  0  0
   -6.1181   -2.4673  -20.3039 C   0  0  0  0  0
   -6.1608   -1.7142  -18.9628 C   0  0  0  0  0
 23  3  1  0  0  0
 23  4  1  0  0  0
 24  7  1  0  0  0
 24 10  1  0  0  0
 25 11  1  0  0  0
 25 14  1  0  0  0
 26 15  1  0  0  0
 26 18  1  0  0  0
 27 19  1  0  0  0
 27 22  1  0  0  0
 28  4  1  0  0  0
 28 29  1  0  0  0
 30 31  1  0  0  0
 32 33  1  0  0  0
 34  5  1  0  0  0
 34 29  1  0  0  0
 35  5  1  0  0  0
 35  6  1  0  0  0
 36  6  1  0  0  0
 36 37  1  0  0  0
 36 38  1  0  0  0
 37  7  1  0  0  0
 38 11  1  0  0  0
 38 39  1  0  0  0
 39 15  1  0  0  0
 39 40  1  0  0  0
 40 19  1  0  0  0
 40 35  1  0  0  0
 23  1  2  0  0  0
 23  2  2  0  0  0
 24  8  2  0  0  0
 24  9  2  0  0  0
 25 12  2  0  0  0
 25 13  2  0  0  0
 26 16  2  0  0  0
 26 17  2  0  0  0
 27 20  2  0  0  0
 27 21  2  0  0  0
 29 30  2  0  0  0
 31 32  2  0  0  0
 33 34  2  0  0  0
M  END
> <rmsd>
0.784778416

$$$$
CHEMBL501660 PubChem-44576229


 69 76  0  0  0  0  0  0  0  0999 V2000
   -2.1933   -4.1012  -19.4158 C   0  0  0  0  0
   -3.3424   -5.0917  -19.6468 C   0  0  0  0  0
   -3.7780   -5.0645  -21.1199 C   0  0  0  0  0
   -2.3484   -6.9790  -21.8205 C   0  0  0  0  0
   -1.4894   -7.3152  -20.6375 C   0  0  0  0  0
   -1.9089   -8.5849  -19.9009 C   0  0  0  0  0
   -3.0748   -8.3101  -19.0150 C   0  0  0  0  0
    0.0069   -7.2078  -21.0082 C   0  0  0  0  0
    0.9239   -7.0727  -19.8333 C   0  0  0  0  0
    0.9383   -6.1253  -18.7820 C   0  0  0  0  0
   -0.0932   -5.0802  -18.6033 C   0  0  0  0  0
    1.9804   -6.2094  -17.8363 C   0  0  0  0  0
    2.9922   -7.1738  -17.9592 C   0  0  0  0  0
    2.9814   -8.0694  -19.0410 C   0  0  0  0  0
    1.9397   -7.9854  -19.9635 C   0  0  0  0  0
    0.6331   -8.3920  -21.8163 C   0  0  0  0  0
    0.9785   -7.9579  -23.2111 C   0  0  0  0  0
   -4.0275   -3.6134  -21.6019 C   0  0  0  0  0
   -2.3392   -2.8266  -20.2596 C   0  0  0  0  0
   -1.9527   -0.4040  -19.8971 C   0  0  0  0  0
   -1.8752    0.6880  -18.9130 C   0  0  0  0  0
   -1.7516    0.3891  -17.5499 C   0  0  0  0  0
   -1.7108    1.4160  -16.5999 C   0  0  0  0  0
   -1.7985    2.7537  -17.0081 C   0  0  0  0  0
   -1.9131    3.0590  -18.3679 C   0  0  0  0  0
   -1.9583    2.0303  -19.3157 C   0  0  0  0  0
   -5.4917   -3.4388  -21.9857 C   0  0  0  0  0
   -7.1306   -4.9026  -20.9083 C   0  0  0  0  0
   -7.3959   -5.6603  -19.6692 C   0  0  0  0  0
   -7.6305   -7.0357  -19.7914 C   0  0  0  0  0
   -7.7799   -7.8435  -18.6645 C   0  0  0  0  0
   -7.7028   -7.2849  -17.3890 C   0  0  0  0  0
   -7.4813   -5.9143  -17.2407 C   0  0  0  0  0
   -7.3161   -5.0875  -18.3740 C   0  0  0  0  0
   -7.1646   -3.6285  -18.1576 C   0  0  0  0  0
   -5.9132   -3.0647  -17.8007 C   0  0  0  0  0
   -4.6346   -3.7988  -17.9014 C   0  0  0  0  0
   -5.8623   -1.7350  -17.3624 C   0  0  0  0  0
   -7.0149   -0.9585  -17.2857 C   0  0  0  0  0
   -8.2465   -1.5009  -17.6556 C   0  0  0  0  0
   -8.3276   -2.8324  -18.0872 C   0  0  0  0  0
   -2.8286   -5.6796  -21.9894 O   0  0  0  0  0
   -2.4395   -7.7925  -22.7816 O   0  0  0  0  0
   -4.2404   -8.6005  -19.3936 O   0  0  0  0  0
   -2.8766   -7.7166  -17.7740 O   0  0  0  0  0
   -0.2294   -4.5251  -17.4758 O   0  0  0  0  0
   -0.9497   -4.7410  -19.6556 O   0  0  0  0  0
    1.8176   -8.7395  -21.1058 O   0  0  0  0  0
    1.7762   -6.9995  -23.4018 O   0  0  0  0  0
    0.4227   -8.6195  -24.3057 O   0  0  0  0  0
   -0.2050   -9.5127  -21.8633 O   0  0  0  0  0
    3.9911   -9.0124  -19.1943 O   0  0  0  0  0
    4.0104   -7.2227  -17.0133 O   0  0  0  0  0
   -3.6909   -2.6462  -20.6267 O   0  0  0  0  0
   -1.9331   -1.7272  -19.4506 O   0  0  0  0  0
   -2.0672   -0.1511  -21.1274 O   0  0  0  0  0
   -1.9779    4.3839  -18.7829 O   0  0  0  0  0
   -1.7614    3.7783  -16.0667 O   0  0  0  0  0
   -1.5825    1.1014  -15.2552 O   0  0  0  0  0
   -6.3143   -3.7758  -20.8769 O   0  0  0  0  0
   -7.5497   -5.3399  -22.0160 O   0  0  0  0  0
   -3.6609   -3.4499  -17.1766 O   0  0  0  0  0
   -4.4895   -4.8527  -18.8114 O   0  0  0  0  0
   -9.5722   -3.3713  -18.4096 O   0  0  0  0  0
   -9.3957   -0.7240  -17.5709 O   0  0  0  0  0
   -6.9255    0.3521  -16.8292 O   0  0  0  0  0
   -7.4419   -5.3693  -15.9592 O   0  0  0  0  0
   -7.8505   -8.0897  -16.2663 O   0  0  0  0  0
   -7.9837   -9.2068  -18.8194 O   0  0  0  0  0
  1  2  1  0  0  0
  1 47  1  0  0  0
  2  3  1  0  0  0
  2 63  1  0  0  0
  3 42  1  0  0  0
  3 18  1  0  0  0
  4 42  1  0  0  0
  5  4  1  0  0  0
  5  6  1  0  0  0
  5  8  1  0  0  0
  6  7  1  0  0  0
  7 45  1  0  0  0
  8  9  1  0  0  0
 10 11  1  0  0  0
 10 12  1  0  0  0
 11 47  1  0  0  0
 13 14  1  0  0  0
 13 53  1  0  0  0
 14 52  1  0  0  0
 15 48  1  0  0  0
 15  9  1  0  0  0
 16 48  1  0  0  0
 16 17  1  0  0  0
 16 51  1  0  0  0
 16  8  1  0  0  0
 17 50  1  0  0  0
 18 54  1  0  0  0
 18 27  1  0  0  0
 19 54  1  0  0  0
 19 55  1  0  0  0
 19  1  1  0  0  0
 20 55  1  0  0  0
 20 21  1  0  0  0
 22 23  1  0  0  0
 23 59  1  0  0  0
 24 25  1  0  0  0
 24 58  1  0  0  0
 25 57  1  0  0  0
 26 21  1  0  0  0
 27 60  1  0  0  0
 28 60  1  0  0  0
 28 29  1  0  0  0
 30 31  1  0  0  0
 31 69  1  0  0  0
 32 33  1  0  0  0
 32 68  1  0  0  0
 33 67  1  0  0  0
 34 35  1  0  0  0
 34 29  1  0  0  0
 36 37  1  0  0  0
 36 38  1  0  0  0
 37 63  1  0  0  0
 39 40  1  0  0  0
 39 66  1  0  0  0
 40 65  1  0  0  0
 41 64  1  0  0  0
 41 35  1  0  0  0
  4 43  2  0  0  0
  7 44  2  0  0  0
  9 10  2  0  0  0
 11 46  2  0  0  0
 12 13  2  0  0  0
 14 15  2  0  0  0
 17 49  2  0  0  0
 20 56  2  0  0  0
 21 22  2  0  0  0
 23 24  2  0  0  0
 25 26  2  0  0  0
 28 61  2  0  0  0
 29 30  2  0  0  0
 31 32  2  0  0  0
 33 34  2  0  0  0
 35 36  2  0  0  0
 37 62  2  0  0  0
 38 39  2  0  0  0
 40 41  2  0  0  0
M  END
> <rmsd>
0.740541101

$$$$
CHEMBL273676 PubChem-788


 61 64  0  0  0  0  0  0  0  0999 V2000
   -1.1940    4.7251  -16.8181 O   0  0  0  0  0
   -1.6471    6.1343  -18.5684 O   0  0  0  0  0
    1.2924  -10.5476  -16.6197 O   0  0  0  0  0
    2.1043  -10.2931  -22.3742 O   0  0  0  0  0
    3.3918  -11.1243  -20.6690 O   0  0  0  0  0
   -2.6550   -9.5652  -19.8723 O   0  0  0  0  0
   -1.9256  -10.0809  -21.9821 O   0  0  0  0  0
   -1.4121   -8.6142  -17.1367 O   0  0  0  0  0
   -2.5751   -8.0193  -15.2538 O   0  0  0  0  0
   -6.7018   -6.1275  -18.7780 O   0  0  0  0  0
   -5.3136   -7.6463  -19.7865 O   0  0  0  0  0
   -7.2129   -4.7481  -21.5743 O   0  0  0  0  0
   -8.3274   -3.3737  -20.1176 O   0  0  0  0  0
   -9.4509   -0.6205  -17.6785 O   0  0  0  0  0
   -7.3766    0.1081  -17.0487 O   0  0  0  0  0
   -5.9638    2.9497  -17.8744 O   0  0  0  0  0
   -4.2649    4.4771  -17.6943 O   0  0  0  0  0
   -1.0254    5.0156  -18.0308 C   0  0  0  0  0
   -0.1798    4.1442  -18.8944 C   0  0  0  0  0
   -1.0406    3.2228  -19.7484 C   0  0  0  0  0
   -1.6240    2.1106  -18.9366 C   0  0  0  0  0
   -0.9119    1.1350  -18.2626 C   0  0  0  0  0
   -3.0122    0.7073  -17.9728 C   0  0  0  0  0
   -4.2508   -0.0098  -17.5496 C   0  0  0  0  0
   -4.5965   -1.0730  -18.5382 C   0  0  0  0  0
   -4.4870   -2.8995  -19.6681 C   0  0  0  0  0
   -4.0613   -4.2591  -20.1379 C   0  0  0  0  0
   -2.9098   -4.8049  -19.3564 C   0  0  0  0  0
   -0.9029   -5.3762  -18.8487 C   0  0  0  0  0
    0.5706   -5.5946  -18.9814 C   0  0  0  0  0
    0.9090   -7.0516  -18.9815 C   0  0  0  0  0
    1.6667   -8.9454  -18.3099 C   0  0  0  0  0
    2.2774   -9.9792  -17.4276 C   0  0  0  0  0
    1.0800   -9.1816  -19.5377 C   0  0  0  0  0
    1.0156  -10.4869  -20.2635 C   0  0  0  0  0
    2.1905  -10.6366  -21.1667 C   0  0  0  0  0
    0.6086   -7.9639  -19.9798 C   0  0  0  0  0
   -0.1216   -7.7006  -21.2604 C   0  0  0  0  0
   -1.6307   -7.7777  -21.0665 C   0  0  0  0  0
   -2.0930   -9.1879  -20.9327 C   0  0  0  0  0
   -1.6850   -5.7071  -17.7553 C   0  0  0  0  0
   -1.2169   -6.3244  -16.4738 C   0  0  0  0  0
   -1.7367   -7.7145  -16.3176 C   0  0  0  0  0
   -2.9732   -5.3341  -18.0800 C   0  0  0  0  0
   -4.1969   -5.4988  -17.2333 C   0  0  0  0  0
   -4.8434   -6.8569  -17.4708 C   0  0  0  0  0
   -5.6725   -6.8486  -18.7092 C   0  0  0  0  0
   -5.5083   -2.1558  -20.2304 C   0  0  0  0  0
   -6.3575   -2.5320  -21.4033 C   0  0  0  0  0
   -7.3169   -3.6140  -21.0397 C   0  0  0  0  0
   -5.5801   -0.9852  -19.5044 C   0  0  0  0  0
   -6.4996    0.1720  -19.7424 C   0  0  0  0  0
   -7.9523   -0.2085  -19.4814 C   0  0  0  0  0
   -8.2981   -0.2544  -18.0243 C   0  0  0  0  0
   -2.9616    1.8366  -18.7631 C   0  0  0  0  0
   -4.1129    2.6015  -19.3346 C   0  0  0  0  0
   -4.8359    3.3487  -18.2666 C   0  0  0  0  0
   -1.7707    0.2752  -17.6723 N   0  0  0  0  0
   -3.9235   -2.2382  -18.6334 N   0  0  0  0  0
   -1.6465   -4.8183  -19.8260 N   0  0  0  0  0
    1.5523   -7.6490  -17.9578 N   0  0  0  0  0
 18  2  1  0  0  0
 19 18  1  0  0  0
 19 20  1  0  0  0
 20 21  1  0  0  0
 22 58  1  0  0  0
 24 23  1  0  0  0
 24 25  1  0  0  0
 25 59  1  0  0  0
 27 26  1  0  0  0
 27 28  1  0  0  0
 28 60  1  0  0  0
 30 29  1  0  0  0
 30 31  1  0  0  0
 31 61  1  0  0  0
 33 32  1  0  0  0
 33  3  1  0  0  0
 34 37  1  0  0  0
 35 34  1  0  0  0
 35 36  1  0  0  0
 36  5  1  0  0  0
 38 37  1  0  0  0
 38 39  1  0  0  0
 39 40  1  0  0  0
 40  7  1  0  0  0
 41 44  1  0  0  0
 42 41  1  0  0  0
 42 43  1  0  0  0
 43  9  1  0  0  0
 45 44  1  0  0  0
 45 46  1  0  0  0
 46 47  1  0  0  0
 47 11  1  0  0  0
 48 51  1  0  0  0
 49 48  1  0  0  0
 49 50  1  0  0  0
 50 13  1  0  0  0
 52 51  1  0  0  0
 52 53  1  0  0  0
 53 54  1  0  0  0
 54 15  1  0  0  0
 55 21  1  0  0  0
 56 55  1  0  0  0
 56 57  1  0  0  0
 57 17  1  0  0  0
 58 23  1  0  0  0
 59 26  1  0  0  0
 60 29  1  0  0  0
 61 32  1  0  0  0
 18  1  2  0  0  0
 21 22  2  0  0  0
 23 55  2  0  0  0
 26 48  2  0  0  0
 29 41  2  0  0  0
 32 34  2  0  0  0
 36  4  2  0  0  0
 37 31  2  0  0  0
 40  6  2  0  0  0
 43  8  2  0  0  0
 44 28  2  0  0  0
 47 10  2  0  0  0
 50 12  2  0  0  0
 51 25  2  0  0  0
 54 14  2  0  0  0
 57 16  2  0  0  0
M  END
> <rmsd>
0.779727459

$$$$
CHEMBL240203 PubChem-44439761


 34 36  0  0  0  0  0  0  0  0999 V2000
    2.6102    0.1654  -16.3908 C   0  0  0  0  0
    0.6932    1.8346  -16.9660 C   0  0  0  0  0
    0.7042    2.2732  -18.2942 C   0  0  0  0  0
   -0.4591    2.2016  -19.0664 C   0  0  0  0  0
   -1.6335    1.6810  -18.5130 C   0  0  0  0  0
   -2.7782    1.5711  -19.2938 C   0  0  0  0  0
   -3.9362    1.0372  -18.7316 C   0  0  0  0  0
   -5.1823    0.0011  -16.8850 C   0  0  0  0  0
   -6.2739   -1.6410  -18.0207 C   0  0  0  0  0
   -5.8242   -2.4979  -19.1972 C   0  0  0  0  0
   -6.8632   -0.3314  -18.4896 C   0  0  0  0  0
   -6.4605    0.6348  -17.4095 C   0  0  0  0  0
   -2.8454    0.7136  -16.6415 C   0  0  0  0  0
   -1.6557    1.2475  -17.1710 C   0  0  0  0  0
   -0.4850    1.3314  -16.4027 C   0  0  0  0  0
    2.1904    1.8869  -15.9914 S   0  0  0  0  0
   -3.9693    0.6363  -17.4237 N   0  0  0  0  0
   -5.1715   -1.3783  -17.1834 O   0  0  0  0  0
   -6.9148   -2.8508  -20.0000 O   0  0  0  0  0
   -8.4509   -4.3352  -18.5014 O   0  0  0  0  0
   -7.9735   -5.2090  -20.9196 O   0  0  0  0  0
   -6.0199   -5.2706  -18.9164 O   0  0  0  0  0
   -6.5337   -7.5442  -20.1583 O   0  0  0  0  0
   -7.9397   -7.0818  -18.0087 O   0  0  0  0  0
   -5.2850   -7.7427  -17.8503 O   0  0  0  0  0
   -3.7742   -8.1021  -19.9954 O   0  0  0  0  0
   -3.3405   -5.8967  -18.6414 O   0  0  0  0  0
   -2.6069   -8.3624  -17.6810 O   0  0  0  0  0
   -8.2532   -0.4377  -18.6101 O   0  0  0  0  0
   -7.4073    0.6542  -16.3802 O   0  0  0  0  0
   -2.8738    0.3020  -15.4472 O   0  0  0  0  0
   -7.3619   -4.4274  -19.5476 P   0  0  0  0  0
   -6.4441   -6.9158  -18.7844 P   0  0  0  0  0
   -3.7658   -7.5347  -18.5924 P   0  0  0  0  0
  1 16  1  0  0  0
  2 16  1  0  0  0
  3  4  1  0  0  0
  5  6  1  0  0  0
  7 17  1  0  0  0
  8 17  1  0  0  0
  8 18  1  0  0  0
  9 18  1  0  0  0
  9 10  1  0  0  0
  9 11  1  0  0  0
 10 19  1  0  0  0
 11 29  1  0  0  0
 11 12  1  0  0  0
 12 30  1  0  0  0
 12  8  1  0  0  0
 13 14  1  0  0  0
 14  5  1  0  0  0
 15  2  1  0  0  0
 17 13  1  0  0  0
 32 19  1  0  0  0
 32 21  1  0  0  0
 32 22  1  0  0  0
 33 22  1  0  0  0
 33 24  1  0  0  0
 33 25  1  0  0  0
 34 25  1  0  0  0
 34 27  1  0  0  0
 34 28  1  0  0  0
  2  3  2  0  0  0
  4  5  2  0  0  0
  6  7  2  0  0  0
 13 31  2  0  0  0
 14 15  2  0  0  0
 32 20  2  0  0  0
 33 23  2  0  0  0
 34 26  2  0  0  0
M  END
> <rmsd>
0.753227353

$$$$
CHEMBL393292 PubChem-44429859


 53 57  0  0  0  0  0  0  0  0999 V2000
  -11.6635    0.7895  -18.6952 C   0  0  0  0  0
  -10.7105   -0.1546  -17.9819 C   0  0  0  0  0
   -8.5715   -1.0351  -18.0442 C   0  0  0  0  0
   -8.4879   -2.6954  -19.5373 C   0  0  0  0  0
   -9.5551   -3.3982  -20.3756 C   0  0  0  0  0
   -8.9000   -4.0228  -21.6093 C   0  0  0  0  0
   -9.6744   -4.0912  -23.6795 C   0  0  0  0  0
   -9.1189   -5.1536  -24.6147 C   0  0  0  0  0
   -8.7224   -4.5409  -25.9140 C   0  0  0  0  0
   -9.4121   -4.8815  -27.0814 C   0  0  0  0  0
   -9.0343   -4.3250  -28.3064 C   0  0  0  0  0
   -7.9637   -3.4293  -28.3689 C   0  0  0  0  0
   -7.2668   -3.0898  -27.2014 C   0  0  0  0  0
   -7.6442   -3.6489  -25.9777 C   0  0  0  0  0
   -6.8675   -4.2877  -20.6580 C   0  0  0  0  0
   -5.7076   -5.2526  -20.4430 C   0  0  0  0  0
   -4.9430   -6.6332  -18.8833 C   0  0  0  0  0
   -4.2428   -6.8761  -16.7726 C   0  0  0  0  0
   -4.3755   -8.2981  -17.2776 C   0  0  0  0  0
   -3.0424   -9.0457  -17.1508 C   0  0  0  0  0
   -4.8946   -8.1313  -18.6924 C   0  0  0  0  0
   -7.2638   -3.6051  -19.3346 C   0  0  0  0  0
   -5.5544   -1.7827  -19.4148 C   0  0  0  0  0
   -4.4851   -1.0666  -18.7149 C   0  0  0  0  0
   -3.8562   -0.0324  -19.2674 C   0  0  0  0  0
   -2.7843    0.7036  -18.5854 C   0  0  0  0  0
   -2.3716    0.3707  -17.2861 C   0  0  0  0  0
   -1.3424    1.0880  -16.6707 C   0  0  0  0  0
   -0.7169    2.1383  -17.3488 C   0  0  0  0  0
   -1.1240    2.4719  -18.6461 C   0  0  0  0  0
   -2.1552    1.7542  -19.2595 C   0  0  0  0  0
   -8.3251   -0.8172  -16.5483 C   0  0  0  0  0
   -9.6621   -0.7609  -15.8047 C   0  0  0  0  0
  -10.6315    0.1979  -16.4908 C   0  0  0  0  0
   -9.4377   -0.0532  -18.5864 O   0  0  0  0  0
   -9.0335   -2.3361  -18.2985 O   0  0  0  0  0
  -10.5308   -2.4767  -20.7609 O   0  0  0  0  0
   -9.8680   -4.6355  -22.4090 O   0  0  0  0  0
   -7.5955   -2.8821  -29.5908 O   0  0  0  0  0
   -6.2022   -2.1985  -27.2526 O   0  0  0  0  0
   -7.9623   -4.9837  -21.2011 O   0  0  0  0  0
   -6.0948   -6.2948  -19.5955 O   0  0  0  0  0
   -4.9732   -6.0259  -17.6185 O   0  0  0  0  0
   -5.3404   -8.9614  -16.5193 O   0  0  0  0  0
   -1.9994   -8.3472  -17.7707 O   0  0  0  0  0
   -4.0650   -8.7135  -19.6597 O   0  0  0  0  0
   -6.1690   -2.8696  -18.7789 O   0  0  0  0  0
   -5.9191   -1.4186  -20.5676 O   0  0  0  0  0
    0.3061    2.8451  -16.7308 O   0  0  0  0  0
   -0.5022    3.5099  -19.3348 O   0  0  0  0  0
   -7.6093    0.3681  -16.3643 O   0  0  0  0  0
   -9.4658   -0.3913  -14.4720 O   0  0  0  0  0
  -11.8950    0.0764  -15.9056 O   0  0  0  0  0
  2  1  1  0  0  0
  2 35  1  0  0  0
  3 35  1  0  0  0
  3 36  1  0  0  0
  3 32  1  0  0  0
  4 36  1  0  0  0
  4  5  1  0  0  0
  5 37  1  0  0  0
  5  6  1  0  0  0
  6 38  1  0  0  0
  6 41  1  0  0  0
  7 38  1  0  0  0
  7  8  1  0  0  0
  8  9  1  0  0  0
 10 11  1  0  0  0
 12 39  1  0  0  0
 12 13  1  0  0  0
 13 40  1  0  0  0
 14  9  1  0  0  0
 15 41  1  0  0  0
 15 16  1  0  0  0
 15 22  1  0  0  0
 16 42  1  0  0  0
 17 42  1  0  0  0
 17 43  1  0  0  0
 18 43  1  0  0  0
 18 19  1  0  0  0
 19 44  1  0  0  0
 19 20  1  0  0  0
 19 21  1  0  0  0
 20 45  1  0  0  0
 21 46  1  0  0  0
 21 17  1  0  0  0
 22 47  1  0  0  0
 22  4  1  0  0  0
 23 47  1  0  0  0
 23 24  1  0  0  0
 25 26  1  0  0  0
 27 28  1  0  0  0
 29 49  1  0  0  0
 29 30  1  0  0  0
 30 50  1  0  0  0
 31 26  1  0  0  0
 32 51  1  0  0  0
 32 33  1  0  0  0
 33 52  1  0  0  0
 33 34  1  0  0  0
 34 53  1  0  0  0
 34  2  1  0  0  0
  9 10  2  0  0  0
 11 12  2  0  0  0
 13 14  2  0  0  0
 23 48  2  0  0  0
 24 25  2  0  0  0
 26 27  2  0  0  0
 28 29  2  0  0  0
 30 31  2  0  0  0
M  END
> <rmsd>
0.64532876

$$$$
CHEMBL607991 PubChem-46875142


 41 46  0  0  0  0  0  0  0  0999 V2000
   -4.4071   -0.7357  -17.2498 N   0  0  0  0  0
   -4.1668   -8.0711  -17.4535 N   0  0  0  0  0
   -3.9765   -9.1242  -15.4570 N   0  0  0  0  0
   -0.6247   -7.6705  -15.5859 N   0  0  0  0  0
   -1.9397   -7.1306  -17.4986 N   0  0  0  0  0
   -1.4896   -9.0448  -13.7844 N   0  0  0  0  0
   -3.0237   -0.1758  -15.5418 N   0  0  0  0  0
   -1.3647    1.7264  -18.1880 N   0  0  0  0  0
   -3.2752    0.5352  -18.9690 N   0  0  0  0  0
   -0.6549    1.6366  -15.8676 N   0  0  0  0  0
   -5.5517   -1.2608  -17.9965 C   0  0  0  0  0
   -6.7171   -0.2841  -18.0364 C   0  0  0  0  0
   -7.8648   -1.2290  -18.2623 C   0  0  0  0  0
   -7.3930   -2.5200  -17.6143 C   0  0  0  0  0
   -7.8236   -3.7314  -18.4328 C   0  0  0  0  0
   -6.4608   -6.7120  -19.9309 C   0  0  0  0  0
   -5.7477   -6.5447  -18.6163 C   0  0  0  0  0
   -4.6867   -7.6208  -18.7418 C   0  0  0  0  0
   -2.9476   -7.8535  -16.9511 C   0  0  0  0  0
   -2.8344   -8.4777  -15.7589 C   0  0  0  0  0
   -4.7791   -8.8571  -16.5279 C   0  0  0  0  0
   -1.6470   -8.3961  -15.0428 C   0  0  0  0  0
   -0.7648   -7.0424  -16.7994 C   0  0  0  0  0
   -6.2551   -8.1798  -20.2663 C   0  0  0  0  0
   -5.9320   -8.3556  -21.7404 C   0  0  0  0  0
   -3.4418    0.0715  -17.7049 C   0  0  0  0  0
   -2.6147    0.4022  -16.6881 C   0  0  0  0  0
   -4.1387   -0.8680  -15.9226 C   0  0  0  0  0
   -1.5421    1.2546  -16.9170 C   0  0  0  0  0
   -2.2179    1.3722  -19.2064 C   0  0  0  0  0
   -5.9890   -2.4909  -17.4602 O   0  0  0  0  0
   -7.2318   -3.7044  -19.7007 O   0  0  0  0  0
   -9.4986   -4.5862  -20.6959 O   0  0  0  0  0
   -7.8267   -6.4151  -19.8344 O   0  0  0  0  0
   -5.2068   -8.7007  -19.4797 O   0  0  0  0  0
   -7.0699   -8.1146  -22.5109 O   0  0  0  0  0
   -6.6142   -6.8207  -17.5522 O   0  0  0  0  0
   -7.3713   -4.9654  -22.1578 O   0  0  0  0  0
   -9.0448   -0.7762  -17.6637 O   0  0  0  0  0
   -6.8501    0.3723  -16.8053 O   0  0  0  0  0
   -8.0233   -4.9088  -20.5958 P   0  0  0  0  0
  1 26  1  0  0  0
  2 19  1  0  0  0
 11  1  1  0  0  0
 11 12  1  0  0  0
 11 31  1  0  0  0
 12 13  1  0  0  0
 12 40  1  0  0  0
 13 14  1  0  0  0
 13 39  1  0  0  0
 14 31  1  0  0  0
 14 15  1  0  0  0
 15 32  1  0  0  0
 16 34  1  0  0  0
 16 17  1  0  0  0
 17 18  1  0  0  0
 17 37  1  0  0  0
 18  2  1  0  0  0
 18 35  1  0  0  0
 19  5  1  0  0  0
 20  3  1  0  0  0
 20 22  1  0  0  0
 21  2  1  0  0  0
 22  6  1  0  0  0
 23  4  1  0  0  0
 24 35  1  0  0  0
 24 25  1  0  0  0
 24 16  1  0  0  0
 25 36  1  0  0  0
 26  9  1  0  0  0
 27  7  1  0  0  0
 27 29  1  0  0  0
 28  1  1  0  0  0
 29 10  1  0  0  0
 30  8  1  0  0  0
 41 32  1  0  0  0
 41 34  1  0  0  0
 41 38  1  0  0  0
 19 20  2  0  0  0
 21  3  2  0  0  0
 22  4  2  0  0  0
 23  5  2  0  0  0
 26 27  2  0  0  0
 28  7  2  0  0  0
 29  8  2  0  0  0
 30  9  2  0  0  0
 41 33  2  0  0  0
M  END
> <rmsd>
0.708459973

$$$$
CHEMBL279184 PubChem-44413849


 93104  0  0  0  0  0  0  0  0999 V2000
   -9.5306   10.3502  -13.5704 N   0  0  0  0  0
   -8.2813   10.0502  -15.5728 N   0  0  0  0  0
  -11.0569    8.6532  -12.7530 N   0  0  0  0  0
  -10.1701    7.1308  -15.1621 N   0  0  0  0  0
   -8.6863    7.9333  -16.6809 N   0  0  0  0  0
   -3.5559    0.5622  -19.0456 N   0  0  0  0  0
   -3.5371   -1.8204  -18.6398 N   0  0  0  0  0
   -2.1683   -2.4734  -16.8053 N   0  0  0  0  0
   -2.1294    1.1365  -17.3778 N   0  0  0  0  0
   -0.9121   -0.8531  -15.5028 N   0  0  0  0  0
   -6.8010   -3.8026  -20.7342 N   0  0  0  0  0
   -7.8864   -4.8946  -22.5979 N   0  0  0  0  0
   -7.3373   -3.9534  -24.7167 N   0  0  0  0  0
   -5.6581   -2.2685  -21.9400 N   0  0  0  0  0
   -5.8182   -2.0777  -24.9245 N   0  0  0  0  0
   -0.7754  -11.4480  -19.7538 N   0  0  0  0  0
   -2.1748  -13.4175  -19.6677 N   0  0  0  0  0
   -1.6015  -15.0808  -21.2661 N   0  0  0  0  0
    0.5698  -12.1461  -21.4459 N   0  0  0  0  0
    0.2383  -14.7856  -22.8151 N   0  0  0  0  0
   -8.6164   10.8105  -14.4854 C   0  0  0  0  0
   -8.8820    8.8420  -15.7149 C   0  0  0  0  0
   -9.7713    8.3659  -14.8190 C   0  0  0  0  0
  -10.1223    9.1262  -13.7134 C   0  0  0  0  0
   -9.4731    6.8883  -16.3076 C   0  0  0  0  0
   -7.7157    7.9697  -17.7785 C   0  0  0  0  0
   -8.1548    7.0801  -18.9294 C   0  0  0  0  0
   -6.0891    3.6722  -20.8217 C   0  0  0  0  0
   -5.7381    2.2405  -21.2106 C   0  0  0  0  0
   -6.7490    1.2749  -20.6190 C   0  0  0  0  0
   -5.9534    0.4663  -19.6380 C   0  0  0  0  0
   -4.5268    0.6674  -20.1316 C   0  0  0  0  0
   -3.1730   -0.5380  -18.3913 C   0  0  0  0  0
   -3.0227   -2.7961  -17.8291 C   0  0  0  0  0
   -1.8021   -1.1776  -16.5680 C   0  0  0  0  0
   -2.3244   -0.1958  -17.3969 C   0  0  0  0  0
   -2.9099    1.5751  -18.4081 C   0  0  0  0  0
   -7.1997   -2.4629  -16.8285 C   0  0  0  0  0
   -7.3582   -3.8340  -17.4692 C   0  0  0  0  0
   -6.0178   -4.5079  -17.6534 C   0  0  0  0  0
   -6.2052   -5.3173  -18.9042 C   0  0  0  0  0
   -7.3224   -4.5713  -19.6144 C   0  0  0  0  0
   -7.0717   -3.9701  -22.0301 C   0  0  0  0  0
   -8.0125   -4.8791  -23.9617 C   0  0  0  0  0
   -6.5137   -3.0313  -24.1321 C   0  0  0  0  0
   -6.3907   -3.0571  -22.7500 C   0  0  0  0  0
   -5.9376   -2.7544  -20.6987 C   0  0  0  0  0
   -3.7693   -8.1134  -19.2231 C   0  0  0  0  0
   -2.7827   -8.9506  -18.4298 C   0  0  0  0  0
   -1.4303   -8.2934  -18.4268 C   0  0  0  0  0
   -0.4799   -9.4594  -18.3020 C   0  0  0  0  0
   -1.3491  -10.6583  -18.6652 C   0  0  0  0  0
   -1.1605  -12.6628  -20.1584 C   0  0  0  0  0
   -2.3939  -14.6431  -20.2367 C   0  0  0  0  0
   -0.5816  -14.3132  -21.7529 C   0  0  0  0  0
   -0.3681  -13.0729  -21.1709 C   0  0  0  0  0
    0.2940  -11.1570  -20.5485 C   0  0  0  0  0
   -8.6652    8.0696  -19.9351 C   0  0  0  0  0
   -7.9102    9.3275  -19.5995 C   0  0  0  0  0
   -8.7686   10.5525  -19.8548 C   0  0  0  0  0
   -7.0403    6.3823  -19.4125 O   0  0  0  0  0
   -7.3311    4.6781  -17.4293 O   0  0  0  0  0
   -5.9145    3.8599  -19.4497 O   0  0  0  0  0
   -4.4399    1.9229  -20.7582 O   0  0  0  0  0
   -6.1191    1.0175  -18.3598 O   0  0  0  0  0
   -7.1419    0.3544  -16.0529 O   0  0  0  0  0
   -6.3916   -1.6386  -17.6118 O   0  0  0  0  0
   -7.9986   -3.7206  -18.7159 O   0  0  0  0  0
   -6.6393   -6.6177  -18.6120 O   0  0  0  0  0
   -5.5059   -6.8625  -21.0338 O   0  0  0  0  0
   -5.0083   -8.7589  -19.2631 O   0  0  0  0  0
   -2.6387  -10.2180  -19.0141 O   0  0  0  0  0
   -0.0276   -9.6091  -16.9830 O   0  0  0  0  0
    2.2441   -8.5201  -17.7821 O   0  0  0  0  0
    2.3148   -9.8222  -15.5274 O   0  0  0  0  0
    2.0811  -11.1333  -17.9348 O   0  0  0  0  0
   -1.3225   -7.4004  -17.3555 O   0  0  0  0  0
   -7.4656   -8.4789  -20.4512 O   0  0  0  0  0
   -5.6963   -5.3023  -16.5500 O   0  0  0  0  0
   -8.6451   -0.1159  -18.1545 O   0  0  0  0  0
   -7.2300    0.4371  -21.6250 O   0  0  0  0  0
   -8.6836    4.1519  -19.6138 O   0  0  0  0  0
   -8.3872    7.6699  -21.2429 O   0  0  0  0  0
   -7.5457    9.2940  -18.2420 O   0  0  0  0  0
   -8.9917   10.7213  -21.2218 O   0  0  0  0  0
  -11.2353   11.9839  -20.6817 O   0  0  0  0  0
   -9.0693   13.4539  -20.6678 O   0  0  0  0  0
  -10.1527   12.4831  -23.0055 O   0  0  0  0  0
   -7.2538    4.7647  -18.9389 P   0  0  0  0  0
   -7.0792   -0.0867  -17.5035 P   0  0  0  0  0
   -6.1167   -7.6341  -19.8780 P   0  0  0  0  0
    1.6665   -9.7313  -17.0839 P   0  0  0  0  0
   -9.8972   12.1494  -21.3664 P   0  0  0  0  0
  5 22  1  0  0  0
  6 33  1  0  0  0
 11 43  1  0  0  0
 16 53  1  0  0  0
 21  2  1  0  0  0
 22 23  1  0  0  0
 23  4  1  0  0  0
 24  3  1  0  0  0
 24  1  1  0  0  0
 25  5  1  0  0  0
 26  5  1  0  0  0
 26 27  1  0  0  0
 26 84  1  0  0  0
 27 61  1  0  0  0
 27 58  1  0  0  0
 28 63  1  0  0  0
 29 28  1  0  0  0
 29 30  1  0  0  0
 29 64  1  0  0  0
 30 31  1  0  0  0
 30 81  1  0  0  0
 31 32  1  0  0  0
 31 65  1  0  0  0
 32  6  1  0  0  0
 32 64  1  0  0  0
 34  7  1  0  0  0
 35  8  1  0  0  0
 35 10  1  0  0  0
 36  9  1  0  0  0
 36 33  1  0  0  0
 37  6  1  0  0  0
 38 67  1  0  0  0
 39 38  1  0  0  0
 39 40  1  0  0  0
 39 68  1  0  0  0
 40 41  1  0  0  0
 40 79  1  0  0  0
 41 42  1  0  0  0
 41 69  1  0  0  0
 42 11  1  0  0  0
 42 68  1  0  0  0
 44 12  1  0  0  0
 45 13  1  0  0  0
 45 15  1  0  0  0
 46 14  1  0  0  0
 46 43  1  0  0  0
 47 11  1  0  0  0
 48 71  1  0  0  0
 49 48  1  0  0  0
 49 50  1  0  0  0
 49 72  1  0  0  0
 50 51  1  0  0  0
 50 77  1  0  0  0
 51 52  1  0  0  0
 51 73  1  0  0  0
 52 16  1  0  0  0
 52 72  1  0  0  0
 54 17  1  0  0  0
 55 18  1  0  0  0
 55 20  1  0  0  0
 56 19  1  0  0  0
 56 53  1  0  0  0
 57 16  1  0  0  0
 58 83  1  0  0  0
 58 59  1  0  0  0
 59 84  1  0  0  0
 59 60  1  0  0  0
 60 85  1  0  0  0
 89 61  1  0  0  0
 89 63  1  0  0  0
 89 82  1  0  0  0
 90 65  1  0  0  0
 90 67  1  0  0  0
 90 80  1  0  0  0
 91 69  1  0  0  0
 91 71  1  0  0  0
 91 78  1  0  0  0
 92 73  1  0  0  0
 92 75  1  0  0  0
 92 76  1  0  0  0
 93 85  1  0  0  0
 93 87  1  0  0  0
 93 88  1  0  0  0
 21  1  2  0  0  0
 22  2  2  0  0  0
 23 24  2  0  0  0
 25  4  2  0  0  0
 33  7  2  0  0  0
 34  8  2  0  0  0
 35 36  2  0  0  0
 37  9  2  0  0  0
 43 12  2  0  0  0
 44 13  2  0  0  0
 45 46  2  0  0  0
 47 14  2  0  0  0
 53 17  2  0  0  0
 54 18  2  0  0  0
 55 56  2  0  0  0
 57 19  2  0  0  0
 89 62  2  0  0  0
 90 66  2  0  0  0
 91 70  2  0  0  0
 92 74  2  0  0  0
 93 86  2  0  0  0
M  END
> <rmsd>
0.724241257

$$$$
CHEMBL1651412 PubChem-53324449


 83 87  0  0  0  0  0  0  0  0999 V2000
   -4.8924   -1.4980  -15.7278 O   0  0  0  0  0
   -4.3963   -3.7219  -16.0079 O   0  0  0  0  0
   -2.1867   -5.4793  -15.5478 O   0  0  0  0  0
   -1.8719   -5.5664  -13.2753 O   0  0  0  0  0
   -2.8308   -8.6661  -12.2094 O   0  0  0  0  0
   -1.6872  -10.2654  -10.4783 O   0  0  0  0  0
   -4.1272  -10.3611  -10.7213 O   0  0  0  0  0
   -3.1018   -8.3249   -9.4789 O   0  0  0  0  0
    0.4402   -7.3386  -12.8354 O   0  0  0  0  0
    1.1201   -9.4135  -11.3981 O   0  0  0  0  0
    1.7437   -9.4087  -13.7718 O   0  0  0  0  0
    3.0438   -7.8454  -12.1596 O   0  0  0  0  0
   -0.1688   -7.2224  -15.4049 O   0  0  0  0  0
   -1.4316   -8.0598  -17.5351 O   0  0  0  0  0
   -0.3323   -9.7483  -16.1227 O   0  0  0  0  0
    1.1580   -8.1962  -17.5801 O   0  0  0  0  0
   -4.6116   -5.9852  -18.8310 O   0  0  0  0  0
   -5.6930   -7.7390  -17.1816 O   0  0  0  0  0
   -4.7644   -8.5484  -19.2890 O   0  0  0  0  0
   -6.9990   -7.2474  -19.3759 O   0  0  0  0  0
   -6.8964   -4.1918  -19.1682 O   0  0  0  0  0
   -5.4837   -4.6279  -21.3394 O   0  0  0  0  0
   -7.9040   -4.3952  -21.5491 O   0  0  0  0  0
   -6.5234   -2.2559  -21.1149 O   0  0  0  0  0
   -6.1919   -1.5322  -18.2625 O   0  0  0  0  0
   -8.2319   -0.0001  -18.7214 O   0  0  0  0  0
   -8.6635   -2.1153  -17.5580 O   0  0  0  0  0
   -7.4954   -0.1944  -16.2271 O   0  0  0  0  0
   -4.6177   -2.0548  -13.0879 O   0  0  0  0  0
   -1.7726    0.1734  -14.8373 O   0  0  0  0  0
   -5.4970    1.6053  -19.2500 O   0  0  0  0  0
   -5.2664    3.6879  -20.8564 O   0  0  0  0  0
   -5.5163    4.1101  -18.4515 O   0  0  0  0  0
   -7.5900    3.3095  -19.7853 O   0  0  0  0  0
   -3.1440    2.0077  -20.7909 O   0  0  0  0  0
   -2.2308    3.0433  -23.0209 O   0  0  0  0  0
   -0.7947    3.1811  -21.0451 O   0  0  0  0  0
   -1.0583    0.8590  -22.2191 O   0  0  0  0  0
    0.8751    0.4328  -10.8995 O   0  0  0  0  0
    1.4163   -1.4165   -9.0992 O   0  0  0  0  0
    2.5158    0.7693   -8.8822 O   0  0  0  0  0
   -0.0094    0.6072   -8.2799 O   0  0  0  0  0
   -3.3306   -2.0047  -10.8152 O   0  0  0  0  0
   -4.3225   -3.3177   -8.7716 O   0  0  0  0  0
   -1.8868   -3.1195   -8.9363 O   0  0  0  0  0
   -3.2335   -1.0100   -8.2344 O   0  0  0  0  0
   -4.6746   -2.5256  -16.6885 C   0  0  0  0  0
   -5.9228   -2.7119  -17.5600 C   0  0  0  0  0
   -5.6857   -3.8477  -18.5588 C   0  0  0  0  0
   -5.0809   -5.0787  -17.8688 C   0  0  0  0  0
   -3.9211   -4.6359  -16.9631 C   0  0  0  0  0
   -3.3358   -5.8408  -16.2501 C   0  0  0  0  0
   -2.2011   -6.3042  -14.4210 C   0  0  0  0  0
   -1.2520   -7.5130  -14.5656 C   0  0  0  0  0
   -0.7517   -7.9892  -13.1838 C   0  0  0  0  0
   -1.7974   -7.7290  -12.0904 C   0  0  0  0  0
   -2.3804   -6.2944  -12.1754 C   0  0  0  0  0
   -2.0578   -5.5568  -10.8892 C   0  0  0  0  0
   -3.8263   -1.0035  -14.9723 C   0  0  0  0  0
   -3.7125   -1.3529  -13.6219 C   0  0  0  0  0
   -2.5893   -0.9238  -12.8819 C   0  0  0  0  0
   -2.3953   -1.2353  -11.5134 C   0  0  0  0  0
   -1.2413   -0.7732  -10.8665 C   0  0  0  0  0
   -0.2809   -0.0156  -11.5411 C   0  0  0  0  0
   -0.4693    0.2889  -12.8882 C   0  0  0  0  0
   -1.6120   -0.1524  -13.5602 C   0  0  0  0  0
   -2.8307   -0.1894  -15.5549 C   0  0  0  0  0
   -2.9237    0.3110  -16.9413 C   0  0  0  0  0
   -1.7557    0.5310  -17.6820 C   0  0  0  0  0
   -1.8262    1.0918  -18.9569 C   0  0  0  0  0
   -3.0637    1.4527  -19.5116 C   0  0  0  0  0
   -4.2355    1.2499  -18.7650 C   0  0  0  0  0
   -4.1544    0.6782  -17.4926 C   0  0  0  0  0
   -2.9280   -9.4503  -10.7170 S   0  0  0  0  0
    1.5699   -8.5568  -12.5465 S   0  0  0  0  0
   -0.2406   -8.3448  -16.6617 S   0  0  0  0  0
   -5.5035   -7.4145  -18.6369 S   0  0  0  0  0
   -6.6942   -3.8985  -20.8205 S   0  0  0  0  0
   -7.6882   -0.9747  -17.7137 S   0  0  0  0  0
   -5.9247    3.2208  -19.5937 S   0  0  0  0  0
   -1.7836    2.3156  -21.7837 S   0  0  0  0  0
    1.2425    0.0718   -9.2654 S   0  0  0  0  0
   -3.1896   -2.4101   -9.1662 S   0  0  0  0  0
 47  1  1  0  0  0
 47 48  1  0  0  0
 47  2  1  0  0  0
 48 49  1  0  0  0
 48 25  1  0  0  0
 49 50  1  0  0  0
 49 21  1  0  0  0
 50 51  1  0  0  0
 50 17  1  0  0  0
 51  2  1  0  0  0
 51 52  1  0  0  0
 52  3  1  0  0  0
 53  3  1  0  0  0
 53 54  1  0  0  0
 53  4  1  0  0  0
 54 55  1  0  0  0
 54 13  1  0  0  0
 55 56  1  0  0  0
 55  9  1  0  0  0
 56 57  1  0  0  0
 56  5  1  0  0  0
 57  4  1  0  0  0
 57 58  1  0  0  0
 59  1  1  0  0  0
 59 60  1  0  0  0
 60 61  1  0  0  0
 62 63  1  0  0  0
 62 43  1  0  0  0
 64 65  1  0  0  0
 64 39  1  0  0  0
 66 30  1  0  0  0
 66 61  1  0  0  0
 67 30  1  0  0  0
 67 68  1  0  0  0
 69 70  1  0  0  0
 71 72  1  0  0  0
 71 35  1  0  0  0
 72 31  1  0  0  0
 73 68  1  0  0  0
 74  5  1  0  0  0
 74  8  1  0  0  0
 75  9  1  0  0  0
 75 12  1  0  0  0
 76 13  1  0  0  0
 76 16  1  0  0  0
 77 17  1  0  0  0
 77 20  1  0  0  0
 78 21  1  0  0  0
 78 24  1  0  0  0
 79 25  1  0  0  0
 79 28  1  0  0  0
 80 31  1  0  0  0
 80 34  1  0  0  0
 81 35  1  0  0  0
 81 38  1  0  0  0
 82 39  1  0  0  0
 82 42  1  0  0  0
 83 43  1  0  0  0
 83 46  1  0  0  0
 60 29  2  0  0  0
 61 62  2  0  0  0
 63 64  2  0  0  0
 65 66  2  0  0  0
 67 59  2  0  0  0
 68 69  2  0  0  0
 70 71  2  0  0  0
 72 73  2  0  0  0
 74  6  2  0  0  0
 74  7  2  0  0  0
 75 10  2  0  0  0
 75 11  2  0  0  0
 76 14  2  0  0  0
 76 15  2  0  0  0
 77 18  2  0  0  0
 77 19  2  0  0  0
 78 22  2  0  0  0
 78 23  2  0  0  0
 79 26  2  0  0  0
 79 27  2  0  0  0
 80 32  2  0  0  0
 80 33  2  0  0  0
 81 36  2  0  0  0
 81 37  2  0  0  0
 82 40  2  0  0  0
 82 41  2  0  0  0
 83 44  2  0  0  0
 83 45  2  0  0  0
M  END
> <rmsd>
0.714431286

$$$$
CHEMBL566902 PubChem-471932


 84 89  0  0  0  0  0  0  0  0999 V2000
   -9.7499  -11.9767  -27.1964 C   0  0  0  0  0
  -10.4417  -12.7171  -28.3020 C   0  0  0  0  0
   -9.7640  -12.4868  -29.6501 C   0  0  0  0  0
  -11.9849  -11.4625  -31.2793 C   0  0  0  0  0
  -12.4366  -10.2967  -32.1426 C   0  0  0  0  0
  -13.0518  -11.7269  -30.2391 C   0  0  0  0  0
  -11.8159  -12.6974  -32.1528 C   0  0  0  0  0
  -10.4786  -14.2088  -27.9913 C   0  0  0  0  0
  -11.4948  -14.9007  -28.8514 C   0  0  0  0  0
  -11.0393  -15.7333  -29.8806 C   0  0  0  0  0
  -11.9450  -16.3661  -30.7354 C   0  0  0  0  0
  -13.3183  -16.1733  -30.5669 C   0  0  0  0  0
  -13.7906  -15.3554  -29.5379 C   0  0  0  0  0
  -12.8809  -14.7213  -28.6591 C   0  0  0  0  0
  -13.3804  -13.9160  -27.6217 C   0  0  0  0  0
  -14.7573  -13.7389  -27.4627 C   0  0  0  0  0
  -15.6468  -14.3643  -28.3353 C   0  0  0  0  0
  -15.1646  -15.1699  -29.3713 C   0  0  0  0  0
   -7.7326  -10.6630  -26.3682 C   0  0  0  0  0
   -8.4499   -9.4387  -25.8879 C   0  0  0  0  0
   -9.2263   -8.0615  -23.9148 C   0  0  0  0  0
   -8.0648   -7.1861  -23.4362 C   0  0  0  0  0
   -7.3264   -6.5162  -24.5909 C   0  0  0  0  0
   -6.8778   -5.1114  -24.1953 C   0  0  0  0  0
   -6.3470   -4.3646  -25.4119 C   0  0  0  0  0
   -6.3135   -2.8917  -25.1861 C   0  0  0  0  0
   -7.1854   -2.0626  -25.8995 C   0  0  0  0  0
   -7.1460   -0.6755  -25.7186 C   0  0  0  0  0
   -6.2376   -0.1133  -24.8177 C   0  0  0  0  0
   -5.3651   -0.9381  -24.1047 C   0  0  0  0  0
   -5.3935   -2.3259  -24.2942 C   0  0  0  0  0
   -6.1683   -4.7564  -21.8068 C   0  0  0  0  0
   -5.0776   -4.7378  -20.7796 C   0  0  0  0  0
   -4.8770   -6.1398  -20.2233 C   0  0  0  0  0
   -3.5823   -6.2173  -19.4292 C   0  0  0  0  0
   -3.3860   -7.5558  -18.7803 C   0  0  0  0  0
   -5.4913   -2.4066  -19.8584 C   0  0  0  0  0
   -5.9945   -1.5470  -18.7475 C   0  0  0  0  0
   -4.9299   -1.3625  -17.6748 C   0  0  0  0  0
   -3.8997   -0.3621  -18.0988 C   0  0  0  0  0
   -2.6066   -0.8221  -18.3719 C   0  0  0  0  0
   -1.6077    0.0661  -18.7747 C   0  0  0  0  0
   -1.8892    1.4280  -18.9013 C   0  0  0  0  0
   -3.1688    1.9091  -18.6207 C   0  0  0  0  0
   -4.1880    1.0159  -18.2123 C   0  0  0  0  0
   -5.4631    1.5228  -17.9251 C   0  0  0  0  0
   -5.7270    2.8880  -18.0516 C   0  0  0  0  0
   -4.7205    3.7618  -18.4656 C   0  0  0  0  0
   -3.4422    3.2741  -18.7478 C   0  0  0  0  0
   -7.2504   -2.1512  -18.1463 C   0  0  0  0  0
   -9.8424   -1.6040  -16.9416 C   0  0  0  0  0
  -10.5378   -2.1915  -18.1557 C   0  0  0  0  0
   -9.6105   -2.7028  -15.9246 C   0  0  0  0  0
  -10.7249   -0.5369  -16.3243 C   0  0  0  0  0
  -10.1491   -8.3821  -22.7454 C   0  0  0  0  0
  -10.8977   -7.1706  -22.3042 C   0  0  0  0  0
  -10.5132   -6.5102  -21.1277 C   0  0  0  0  0
  -11.2041   -5.3709  -20.7106 C   0  0  0  0  0
  -12.2832   -4.8937  -21.4607 C   0  0  0  0  0
  -12.6740   -5.5618  -22.6304 C   0  0  0  0  0
  -11.9808   -6.6996  -23.0514 C   0  0  0  0  0
   -6.3186  -10.3319  -26.8463 C   0  0  0  0  0
   -6.3230   -9.5433  -28.1494 C   0  0  0  0  0
   -4.9425   -9.1709  -28.5842 C   0  0  0  0  0
  -10.2955  -11.9226  -26.0621 O   0  0  0  0  0
   -9.4447  -10.6133  -31.5273 O   0  0  0  0  0
  -10.6411   -9.9272  -29.5058 O   0  0  0  0  0
   -8.8011   -8.5408  -26.7009 O   0  0  0  0  0
   -7.3556   -4.4690  -21.4829 O   0  0  0  0  0
   -4.2502   -8.4717  -18.8829 O   0  0  0  0  0
   -2.2276   -7.7916  -18.0529 O   0  0  0  0  0
   -5.1393   -1.8691  -20.9416 O   0  0  0  0  0
   -8.5075    0.2113  -18.4202 O   0  0  0  0  0
   -7.5915   -0.3250  -16.2091 O   0  0  0  0  0
   -6.2449   -7.2913  -25.0187 O   0  0  0  0  0
   -7.1955   -7.8930  -22.5994 O   0  0  0  0  0
   -4.7867   -8.5614  -29.6728 O   0  0  0  0  0
   -3.8293   -9.4855  -27.8137 O   0  0  0  0  0
  -10.4329  -11.0534  -30.4864 S   0  0  0  0  0
   -8.2793   -0.8895  -17.4211 S   0  0  0  0  0
   -8.4819  -11.3475  -27.4170 N   0  0  0  0  0
   -8.7339   -9.3029  -24.4946 N   0  0  0  0  0
   -5.8695   -5.1606  -23.1436 N   0  0  0  0  0
   -5.3980   -3.8235  -19.6872 N   0  0  0  0  0
  1 81  1  0  0  0
  2  1  1  0  0  0
  2  3  1  0  0  0
  2  8  1  0  0  0
  3 79  1  0  0  0
  4  5  1  0  0  0
  4  6  1  0  0  0
  4  7  1  0  0  0
  8  9  1  0  0  0
 10 11  1  0  0  0
 12 13  1  0  0  0
 14 15  1  0  0  0
 14  9  1  0  0  0
 16 17  1  0  0  0
 18 13  1  0  0  0
 19 81  1  0  0  0
 19 20  1  0  0  0
 19 62  1  0  0  0
 20 82  1  0  0  0
 21 82  1  0  0  0
 21 22  1  0  0  0
 21 55  1  0  0  0
 22 23  1  0  0  0
 22 76  1  0  0  0
 23 24  1  0  0  0
 23 75  1  0  0  0
 24 25  1  0  0  0
 24 83  1  0  0  0
 25 26  1  0  0  0
 27 28  1  0  0  0
 29 30  1  0  0  0
 31 26  1  0  0  0
 33 32  1  0  0  0
 33 34  1  0  0  0
 33 84  1  0  0  0
 34 35  1  0  0  0
 35 36  1  0  0  0
 36 71  1  0  0  0
 38 37  1  0  0  0
 38 39  1  0  0  0
 38 50  1  0  0  0
 39 40  1  0  0  0
 41 42  1  0  0  0
 43 44  1  0  0  0
 45 46  1  0  0  0
 45 40  1  0  0  0
 47 48  1  0  0  0
 49 44  1  0  0  0
 50 80  1  0  0  0
 51 52  1  0  0  0
 51 53  1  0  0  0
 51 54  1  0  0  0
 55 56  1  0  0  0
 57 58  1  0  0  0
 59 60  1  0  0  0
 61 56  1  0  0  0
 62 63  1  0  0  0
 63 64  1  0  0  0
 64 78  1  0  0  0
 79  4  1  0  0  0
 80 51  1  0  0  0
 83 32  1  0  0  0
 84 37  1  0  0  0
  1 65  2  0  0  0
  9 10  2  0  0  0
 11 12  2  0  0  0
 13 14  2  0  0  0
 15 16  2  0  0  0
 17 18  2  0  0  0
 20 68  2  0  0  0
 26 27  2  0  0  0
 28 29  2  0  0  0
 30 31  2  0  0  0
 32 69  2  0  0  0
 36 70  2  0  0  0
 37 72  2  0  0  0
 40 41  2  0  0  0
 42 43  2  0  0  0
 44 45  2  0  0  0
 46 47  2  0  0  0
 48 49  2  0  0  0
 56 57  2  0  0  0
 58 59  2  0  0  0
 60 61  2  0  0  0
 64 77  2  0  0  0
 79 66  2  0  0  0
 79 67  2  0  0  0
 80 73  2  0  0  0
 80 74  2  0  0  0
M  END
> <rmsd>
0.801506698

$$$$
CHEMBL1615616 PubChem-135908310


 52 56  0  0  0  0  0  0  0  0999 V2000
   -2.7045    0.8529  -20.1818 N   0  0  0  0  0
   -0.8818    1.6261  -21.5608 N   0  0  0  0  0
   -0.7533    1.7354  -19.1486 N   0  0  0  0  0
   -3.2702    0.6647  -16.7282 N   0  0  0  0  0
   -4.4017    0.1408  -18.6175 N   0  0  0  0  0
   -4.0595   -9.0747  -17.5790 N   0  0  0  0  0
   -3.1402   -9.6917  -15.4902 N   0  0  0  0  0
   -4.5063  -10.5748  -13.7130 N   0  0  0  0  0
   -8.7306   -4.6727  -20.2495 N   0  0  0  0  0
   -1.4556    1.4009  -20.2793 C   0  0  0  0  0
   -1.2751    1.5320  -17.9029 C   0  0  0  0  0
   -2.5438    0.9800  -17.8160 C   0  0  0  0  0
   -4.4110    0.1396  -17.2588 C   0  0  0  0  0
   -3.2158    0.6612  -18.9422 C   0  0  0  0  0
   -5.4012   -0.4179  -19.5186 C   0  0  0  0  0
   -7.5247   -1.1858  -19.4124 C   0  0  0  0  0
   -6.6820   -2.3849  -19.7988 C   0  0  0  0  0
   -5.2661   -1.9182  -19.5756 C   0  0  0  0  0
   -3.3997   -3.0307  -20.0046 C   0  0  0  0  0
   -6.2142   -6.5555  -20.7187 C   0  0  0  0  0
   -4.9427   -7.3465  -20.4799 C   0  0  0  0  0
   -5.1124   -8.7688  -20.9589 C   0  0  0  0  0
   -4.3105   -9.5704  -19.9786 C   0  0  0  0  0
   -3.8874   -8.5509  -18.9358 C   0  0  0  0  0
   -5.3012   -9.4310  -17.1412 C   0  0  0  0  0
   -5.4811   -9.9370  -15.8552 C   0  0  0  0  0
   -4.3644  -10.0638  -15.0336 C   0  0  0  0  0
   -2.9790   -9.2014  -16.7482 C   0  0  0  0  0
   -9.7609   -3.7851  -20.7596 C   0  0  0  0  0
  -10.8777   -3.6670  -19.7420 C   0  0  0  0  0
  -11.9080   -2.6594  -20.2142 C   0  0  0  0  0
   -8.4023   -1.5528  -18.2302 C   0  0  0  0  0
   -0.6194    1.8378  -16.8728 O   0  0  0  0  0
   -6.6939   -0.0997  -19.0695 O   0  0  0  0  0
   -4.4109   -2.2904  -20.6186 O   0  0  0  0  0
   -6.9197   -2.6959  -21.1435 O   0  0  0  0  0
   -7.4653   -4.7888  -22.6059 O   0  0  0  0  0
   -5.9659   -5.2032  -20.4774 O   0  0  0  0  0
   -4.6398   -7.3775  -19.1103 O   0  0  0  0  0
   -1.8239   -8.8720  -17.1390 O   0  0  0  0  0
   -3.1788  -10.0914  -20.6065 O   0  0  0  0  0
  -12.6297   -3.1842  -21.2893 O   0  0  0  0  0
  -13.4910   -0.7881  -21.9433 O   0  0  0  0  0
  -11.0990   -1.4250  -22.8010 O   0  0  0  0  0
  -13.3789   -2.5491  -23.8678 O   0  0  0  0  0
   -9.2557   -0.4923  -17.9211 O   0  0  0  0  0
  -10.1721    0.7062  -15.7854 O   0  0  0  0  0
   -9.6690   -1.8451  -15.5338 O   0  0  0  0  0
   -7.6483    0.0313  -15.7249 O   0  0  0  0  0
   -7.2681   -4.3564  -21.1682 P   0  0  0  0  0
  -12.6711   -1.9518  -22.4533 P   0  0  0  0  0
   -9.2124   -0.3716  -16.2307 P   0  0  0  0  0
  3 11  1  0  0  0
  5 14  1  0  0  0
  6 25  1  0  0  0
 10  2  1  0  0  0
 10  3  1  0  0  0
 11 12  1  0  0  0
 12  4  1  0  0  0
 13  5  1  0  0  0
 14  1  1  0  0  0
 15  5  1  0  0  0
 15 34  1  0  0  0
 16 34  1  0  0  0
 16 17  1  0  0  0
 16 32  1  0  0  0
 17 18  1  0  0  0
 17 36  1  0  0  0
 18 35  1  0  0  0
 18 15  1  0  0  0
 19 35  1  0  0  0
 20 38  1  0  0  0
 21 20  1  0  0  0
 21 22  1  0  0  0
 21 39  1  0  0  0
 22 23  1  0  0  0
 23 24  1  0  0  0
 23 41  1  0  0  0
 24 39  1  0  0  0
 24  6  1  0  0  0
 26 27  1  0  0  0
 27  8  1  0  0  0
 28  7  1  0  0  0
 28  6  1  0  0  0
 29  9  1  0  0  0
 29 30  1  0  0  0
 30 31  1  0  0  0
 31 42  1  0  0  0
 32 46  1  0  0  0
 50 36  1  0  0  0
 50 38  1  0  0  0
 50  9  1  0  0  0
 51 42  1  0  0  0
 51 44  1  0  0  0
 51 45  1  0  0  0
 52 46  1  0  0  0
 52 48  1  0  0  0
 52 49  1  0  0  0
 10  1  2  0  0  0
 11 33  2  0  0  0
 13  4  2  0  0  0
 14 12  2  0  0  0
 25 26  2  0  0  0
 27  7  2  0  0  0
 28 40  2  0  0  0
 50 37  2  0  0  0
 51 43  2  0  0  0
 52 47  2  0  0  0
M  END
> <rmsd>
0.8071509

$$$$
CHEMBL610864 PubChem-46877377


107121  0  0  0  0  0  0  0  0999 V2000
   -6.6748    8.7670  -21.1100 N   0  0  0  0  0
   -5.1358    1.5374  -17.7776 N   0  0  0  0  0
   -4.2570    1.5870  -19.8642 N   0  0  0  0  0
   -1.1432    1.1458  -18.0063 N   0  0  0  0  0
   -3.0522    1.2558  -16.5880 N   0  0  0  0  0
   -1.3297    1.3094  -20.4182 N   0  0  0  0  0
   -5.3578   -3.6503  -17.4251 N   0  0  0  0  0
   -3.2159   -3.0425  -17.0173 N   0  0  0  0  0
   -4.7819   -1.3235  -14.2004 N   0  0  0  0  0
   -6.3526   -2.4848  -15.5569 N   0  0  0  0  0
   -2.4093   -1.3396  -14.6941 N   0  0  0  0  0
   -4.0014  -10.3705  -14.5111 N   0  0  0  0  0
   -2.2898  -11.8376  -14.7475 N   0  0  0  0  0
   -2.0195  -11.3210  -11.1424 N   0  0  0  0  0
   -3.7842  -10.0578  -12.1239 N   0  0  0  0  0
   -0.6015  -12.7768  -12.4642 N   0  0  0  0  0
   -7.8911   15.0900  -21.5384 N   0  0  0  0  0
   -9.4083   15.8165  -23.0578 N   0  0  0  0  0
   -6.9459   18.4715  -23.5096 N   0  0  0  0  0
   -6.2843   16.8731  -21.8760 N   0  0  0  0  0
   -9.0464   18.2844  -24.7076 N   0  0  0  0  0
   -6.5846    9.8365  -23.1047 N   0  0  0  0  0
   -9.3769   11.6923  -21.6513 N   0  0  0  0  0
   -8.5118   10.0337  -20.1816 N   0  0  0  0  0
   -8.4501   12.0529  -23.8633 N   0  0  0  0  0
   -6.3391    7.8922  -19.9908 C   0  0  0  0  0
   -5.3944    8.5524  -18.9965 C   0  0  0  0  0
   -4.5498    7.3930  -18.5138 C   0  0  0  0  0
   -4.9810    6.2178  -19.3736 C   0  0  0  0  0
   -5.7955    5.2139  -18.5630 C   0  0  0  0  0
   -6.9653    2.7614  -16.7204 C   0  0  0  0  0
   -6.0911    1.5283  -16.6756 C   0  0  0  0  0
   -3.8097    1.4070  -17.7017 C   0  0  0  0  0
   -3.2851    1.4323  -18.9457 C   0  0  0  0  0
   -5.3905    1.6471  -19.1080 C   0  0  0  0  0
   -1.9165    1.2960  -19.1219 C   0  0  0  0  0
   -1.6997    1.1259  -16.7517 C   0  0  0  0  0
   -8.2081    0.7414  -16.9749 C   0  0  0  0  0
   -8.3746    2.2327  -16.8008 C   0  0  0  0  0
   -8.6144    0.3110  -18.3733 C   0  0  0  0  0
   -6.7092   -3.9009  -19.4502 C   0  0  0  0  0
   -6.5249   -4.3110  -17.9978 C   0  0  0  0  0
   -5.3199   -2.8551  -16.3529 C   0  0  0  0  0
   -4.0428   -2.4923  -16.1097 C   0  0  0  0  0
   -4.0616   -3.7545  -17.8183 C   0  0  0  0  0
   -3.7477   -1.7093  -15.0045 C   0  0  0  0  0
   -6.0722   -1.7025  -14.4686 C   0  0  0  0  0
   -6.7631   -6.2362  -19.1407 C   0  0  0  0  0
   -6.5276   -5.1914  -20.2007 C   0  0  0  0  0
   -5.9797   -7.5096  -19.4415 C   0  0  0  0  0
   -5.3827   -9.3250  -16.2743 C   0  0  0  0  0
   -5.1611   -9.5246  -14.7889 C   0  0  0  0  0
   -3.4353  -10.5919  -13.3204 C   0  0  0  0  0
   -2.4139  -11.4637  -13.4618 C   0  0  0  0  0
   -3.2856  -11.1446  -15.3709 C   0  0  0  0  0
   -1.6780  -11.8528  -12.3532 C   0  0  0  0  0
   -3.0618  -10.4320  -11.0239 C   0  0  0  0  0
   -7.2971  -10.1876  -15.2252 C   0  0  0  0  0
   -6.8794   -9.3429  -16.4050 C   0  0  0  0  0
   -7.4649  -11.6434  -15.6362 C   0  0  0  0  0
   -4.5154   13.3872  -18.7318 C   0  0  0  0  0
   -5.6649   14.3717  -18.9266 C   0  0  0  0  0
   -7.2657   14.2480  -20.5181 C   0  0  0  0  0
   -7.4380   16.2080  -22.1245 C   0  0  0  0  0
   -8.3460   16.6403  -23.0273 C   0  0  0  0  0
   -9.0941   14.8699  -22.1277 C   0  0  0  0  0
   -8.1075   17.7967  -23.7544 C   0  0  0  0  0
   -6.0409   18.0171  -22.5849 C   0  0  0  0  0
   -8.0124   14.2947  -19.1980 C   0  0  0  0  0
   -6.9258   13.8806  -18.2501 C   0  0  0  0  0
   -7.6209    9.7086  -21.1504 C   0  0  0  0  0
   -7.5720   10.3417  -22.3415 C   0  0  0  0  0
   -6.0449    8.8688  -22.3099 C   0  0  0  0  0
   -8.4679   11.3639  -22.6173 C   0  0  0  0  0
   -9.3995   11.0402  -20.4445 C   0  0  0  0  0
   -5.7552    6.6978  -20.4448 O   0  0  0  0  0
   -5.0768    4.7805  -17.4462 O   0  0  0  0  0
   -5.2869    5.6092  -14.9845 O   0  0  0  0  0
   -6.7460    3.5296  -15.5708 O   0  0  0  0  0
   -6.8781    0.3619  -16.7309 O   0  0  0  0  0
   -9.0859    2.4803  -15.6233 O   0  0  0  0  0
   -8.8338   -1.0692  -18.3871 O   0  0  0  0  0
   -8.3482   -1.1686  -20.9657 O   0  0  0  0  0
   -8.0014   -3.3844  -19.6199 O   0  0  0  0  0
   -6.3788   -5.7083  -17.8981 O   0  0  0  0  0
   -7.4540   -5.3318  -21.2367 O   0  0  0  0  0
   -4.6057   -7.2838  -19.3277 O   0  0  0  0  0
   -2.5689   -8.2583  -18.0120 O   0  0  0  0  0
   -4.8270   -8.1117  -16.6969 O   0  0  0  0  0
   -6.3165  -10.0947  -14.2133 O   0  0  0  0  0
   -7.4097   -8.0577  -16.2442 O   0  0  0  0  0
   -8.5549  -11.7728  -16.4975 O   0  0  0  0  0
   -4.3829   -9.9814  -18.7623 O   0  0  0  0  0
   -6.2498   -1.2030  -19.4071 O   0  0  0  0  0
   -7.3785    6.0706  -16.4642 O   0  0  0  0  0
   -3.1824    7.6286  -18.6980 O   0  0  0  0  0
   -4.6174    9.5422  -19.6151 O   0  0  0  0  0
   -3.5515   10.8919  -17.6470 O   0  0  0  0  0
   -4.6366   12.2957  -19.5991 O   0  0  0  0  0
   -5.9186   14.6011  -20.2962 O   0  0  0  0  0
   -7.0706   14.4789  -16.9926 O   0  0  0  0  0
   -8.4270   15.6057  -18.9258 O   0  0  0  0  0
   -6.1711   10.9300  -17.7422 O   0  0  0  0  0
   -6.1031    5.0094  -16.1059 P   0  0  0  0  0
   -7.8588   -1.6897  -19.6327 P   0  0  0  0  0
   -4.0624   -8.4160  -18.1894 P   0  0  0  0  0
   -4.7177   10.9137  -18.6143 P   0  0  0  0  0
  1 71  1  0  0  0
  2 33  1  0  0  0
  7 43  1  0  0  0
 12 53  1  0  0  0
 17 64  1  0  0  0
 26  1  1  0  0  0
 26 27  1  0  0  0
 26 76  1  0  0  0
 27 28  1  0  0  0
 27 97  1  0  0  0
 28 29  1  0  0  0
 28 96  1  0  0  0
 29 76  1  0  0  0
 29 30  1  0  0  0
 30 77  1  0  0  0
 31 79  1  0  0  0
 31 32  1  0  0  0
 32  2  1  0  0  0
 32 80  1  0  0  0
 33  5  1  0  0  0
 34  3  1  0  0  0
 34 36  1  0  0  0
 35  2  1  0  0  0
 36  6  1  0  0  0
 37  4  1  0  0  0
 38 80  1  0  0  0
 38 39  1  0  0  0
 38 40  1  0  0  0
 39 81  1  0  0  0
 39 31  1  0  0  0
 40 82  1  0  0  0
 41 84  1  0  0  0
 41 42  1  0  0  0
 42  7  1  0  0  0
 42 85  1  0  0  0
 43 10  1  0  0  0
 44  8  1  0  0  0
 44 46  1  0  0  0
 45  7  1  0  0  0
 46 11  1  0  0  0
 47  9  1  0  0  0
 48 85  1  0  0  0
 48 49  1  0  0  0
 48 50  1  0  0  0
 49 86  1  0  0  0
 49 41  1  0  0  0
 50 87  1  0  0  0
 51 89  1  0  0  0
 51 52  1  0  0  0
 52 12  1  0  0  0
 52 90  1  0  0  0
 53 15  1  0  0  0
 54 13  1  0  0  0
 54 56  1  0  0  0
 55 12  1  0  0  0
 56 16  1  0  0  0
 57 14  1  0  0  0
 58 90  1  0  0  0
 58 59  1  0  0  0
 58 60  1  0  0  0
 59 91  1  0  0  0
 59 51  1  0  0  0
 60 92  1  0  0  0
 61 99  1  0  0  0
 62 61  1  0  0  0
 62100  1  0  0  0
 63100  1  0  0  0
 63 17  1  0  0  0
 63 69  1  0  0  0
 64 20  1  0  0  0
 65 18  1  0  0  0
 65 67  1  0  0  0
 66 17  1  0  0  0
 67 21  1  0  0  0
 68 19  1  0  0  0
 69 70  1  0  0  0
 69102  1  0  0  0
 70101  1  0  0  0
 70 62  1  0  0  0
 71 24  1  0  0  0
 72 22  1  0  0  0
 72 74  1  0  0  0
 73  1  1  0  0  0
 74 25  1  0  0  0
 75 23  1  0  0  0
104 77  1  0  0  0
104 79  1  0  0  0
104 95  1  0  0  0
105 82  1  0  0  0
105 84  1  0  0  0
105 94  1  0  0  0
106 87  1  0  0  0
106 89  1  0  0  0
106 93  1  0  0  0
107 97  1  0  0  0
107 99  1  0  0  0
107103  1  0  0  0
 33 34  2  0  0  0
 35  3  2  0  0  0
 36  4  2  0  0  0
 37  5  2  0  0  0
 43 44  2  0  0  0
 45  8  2  0  0  0
 46  9  2  0  0  0
 47 10  2  0  0  0
 53 54  2  0  0  0
 55 13  2  0  0  0
 56 14  2  0  0  0
 57 15  2  0  0  0
 64 65  2  0  0  0
 66 18  2  0  0  0
 67 19  2  0  0  0
 68 20  2  0  0  0
 71 72  2  0  0  0
 73 22  2  0  0  0
 74 23  2  0  0  0
 75 24  2  0  0  0
104 78  2  0  0  0
105 83  2  0  0  0
106 88  2  0  0  0
107 98  2  0  0  0
M  END
> <rmsd>
0.705590487

$$$$
CHEMBL2153275 PubChem-71458479


 88 92  0  0  0  0  0  0  0  0999 V2000
   -6.3225   -4.3998  -19.5977 O   0  0  0  0  0
   -8.1569   -5.4827  -21.8216 O   0  0  0  0  0
   -7.1829   -5.7894  -24.2165 O   0  0  0  0  0
   -8.0980   -3.6009  -23.6202 O   0  0  0  0  0
   -5.7975   -4.2587  -22.6334 O   0  0  0  0  0
   -7.7274   -8.1400  -22.2298 O   0  0  0  0  0
   -5.2415   -7.9627  -23.0222 O   0  0  0  0  0
   -6.6875   -9.6320  -24.0820 O   0  0  0  0  0
   -5.8553  -10.1067  -21.6719 O   0  0  0  0  0
   -8.5070   -9.3903  -19.8344 O   0  0  0  0  0
  -10.3206  -11.2027  -20.1792 O   0  0  0  0  0
  -10.9866   -9.1514  -19.0276 O   0  0  0  0  0
  -10.6062   -9.0683  -21.6120 O   0  0  0  0  0
   -6.8713   -6.4586  -18.6399 O   0  0  0  0  0
   -4.6342   -2.7195  -16.9616 O   0  0  0  0  0
   -2.9738   -1.2311  -16.2945 O   0  0  0  0  0
   -0.3510   -0.5266  -16.1107 O   0  0  0  0  0
   -2.5549    1.1638  -19.0152 O   0  0  0  0  0
   -7.6318   -0.0902  -16.0897 O   0  0  0  0  0
   -8.9288    1.2243  -13.8383 O   0  0  0  0  0
  -10.4960    0.4140  -11.9084 O   0  0  0  0  0
   -8.4074    1.5620  -11.2996 O   0  0  0  0  0
  -10.3340    2.9757  -12.2832 O   0  0  0  0  0
   -8.7875   -0.2871  -18.5983 O   0  0  0  0  0
  -10.9753   -2.1876  -19.1914 O   0  0  0  0  0
  -10.5136   -4.7463  -19.4965 O   0  0  0  0  0
  -11.8372   -4.0201  -17.5668 O   0  0  0  0  0
   -9.2857   -3.5678  -17.5184 O   0  0  0  0  0
    1.2358    3.3574  -20.9464 O   0  0  0  0  0
    2.1273    3.8355  -23.6531 O   0  0  0  0  0
    3.9940    5.5962  -24.1393 O   0  0  0  0  0
    3.6161    3.8113  -25.7821 O   0  0  0  0  0
    1.8813    5.7290  -25.6486 O   0  0  0  0  0
    1.8287    0.6523  -17.0258 O   0  0  0  0  0
   -3.0317   -5.1761  -18.6839 O   0  0  0  0  0
   -2.2618   -7.0073  -20.3539 O   0  0  0  0  0
   -4.3349   -7.4159  -19.1561 O   0  0  0  0  0
   -2.1050   -7.6293  -17.8391 O   0  0  0  0  0
   -4.3284   -5.2310  -15.3156 O   0  0  0  0  0
   -4.7744   -7.7112  -16.0414 O   0  0  0  0  0
   -2.7929   -7.2603  -14.6678 O   0  0  0  0  0
   -5.1184   -7.1478  -13.5303 O   0  0  0  0  0
   -1.2916   -3.7541  -16.2683 O   0  0  0  0  0
    0.9716   -3.7005  -14.9842 O   0  0  0  0  0
   -0.9137   -2.5049  -13.9854 O   0  0  0  0  0
   -0.9163   -5.1010  -13.8870 O   0  0  0  0  0
   -7.2190   -5.4851  -19.6111 C   0  0  0  0  0
   -7.1843   -6.0965  -21.0224 C   0  0  0  0  0
   -7.3664   -7.6220  -20.9795 C   0  0  0  0  0
   -8.3789   -7.9988  -19.9063 C   0  0  0  0  0
   -7.9011   -7.4390  -18.5517 C   0  0  0  0  0
   -9.0613   -6.9572  -17.7029 C   0  0  0  0  0
   -6.2225   -3.9094  -18.2928 C   0  0  0  0  0
   -4.7596   -3.6683  -17.9899 C   0  0  0  0  0
   -3.2556   -2.5151  -16.8306 C   0  0  0  0  0
   -2.4011   -0.2651  -17.1271 C   0  0  0  0  0
   -1.0303    0.0164  -17.0247 C   0  0  0  0  0
   -0.4240    0.8693  -17.9729 C   0  0  0  0  0
    0.9615    1.1672  -17.9833 C   0  0  0  0  0
    1.4877    1.9939  -18.9809 C   0  0  0  0  0
    0.6660    2.5364  -19.9702 C   0  0  0  0  0
   -0.7032    2.2489  -19.9626 C   0  0  0  0  0
   -1.2517    1.4224  -18.9819 C   0  0  0  0  0
   -3.1615    0.3690  -18.1365 C   0  0  0  0  0
   -4.6214    0.1846  -18.2543 C   0  0  0  0  0
   -5.2165    0.0913  -19.5191 C   0  0  0  0  0
   -6.5959   -0.0817  -19.6390 C   0  0  0  0  0
   -7.4027   -0.1419  -18.4939 C   0  0  0  0  0
   -6.8167   -0.0336  -17.2247 C   0  0  0  0  0
   -5.4285    0.1264  -17.1114 C   0  0  0  0  0
   -7.1113   -0.0140  -14.7684 C   0  0  0  0  0
   -8.2463    0.0062  -13.7621 C   0  0  0  0  0
   -9.4467   -0.4736  -19.8465 C   0  0  0  0  0
   -9.8679   -1.9246  -19.9990 C   0  0  0  0  0
    0.4605    4.0206  -21.9440 C   0  0  0  0  0
    1.3804    4.7534  -22.9061 C   0  0  0  0  0
   -2.6555   -3.6462  -15.9934 C   0  0  0  0  0
   -3.3582   -4.9840  -16.2965 C   0  0  0  0  0
   -4.0142   -4.9942  -17.6994 C   0  0  0  0  0
   -7.3225   -4.7841  -23.1108 S   0  0  0  0  0
   -6.3556   -8.9461  -22.7880 S   0  0  0  0  0
  -10.1333   -9.7173  -20.1299 S   0  0  0  0  0
   -9.5333    1.5019  -12.2924 S   0  0  0  0  0
  -10.6771   -3.6725  -18.4556 S   0  0  0  0  0
    2.9507    4.7447  -24.8079 S   0  0  0  0  0
   -2.9632   -6.8257  -19.0442 S   0  0  0  0  0
   -4.2201   -6.8725  -14.9227 S   0  0  0  0  0
   -0.5165   -3.7255  -14.7659 S   0  0  0  0  0
 47  1  1  0  0  0
 47 48  1  0  0  0
 47 14  1  0  0  0
 48  2  1  0  0  0
 48 49  1  0  0  0
 49  6  1  0  0  0
 49 50  1  0  0  0
 50 10  1  0  0  0
 50 51  1  0  0  0
 51 14  1  0  0  0
 51 52  1  0  0  0
 53  1  1  0  0  0
 54 53  1  0  0  0
 54 15  1  0  0  0
 55 15  1  0  0  0
 55 16  1  0  0  0
 55 77  1  0  0  0
 56 16  1  0  0  0
 56 57  1  0  0  0
 57 58  1  0  0  0
 59 60  1  0  0  0
 59 34  1  0  0  0
 61 62  1  0  0  0
 61 29  1  0  0  0
 63 18  1  0  0  0
 63 58  1  0  0  0
 64 18  1  0  0  0
 64 65  1  0  0  0
 66 67  1  0  0  0
 68 69  1  0  0  0
 68 24  1  0  0  0
 69 19  1  0  0  0
 70 65  1  0  0  0
 71 19  1  0  0  0
 71 72  1  0  0  0
 72 20  1  0  0  0
 73 24  1  0  0  0
 73 74  1  0  0  0
 74 25  1  0  0  0
 75 29  1  0  0  0
 75 76  1  0  0  0
 76 30  1  0  0  0
 77 78  1  0  0  0
 77 43  1  0  0  0
 78 79  1  0  0  0
 78 39  1  0  0  0
 79 35  1  0  0  0
 79 54  1  0  0  0
 80  2  1  0  0  0
 80  5  1  0  0  0
 81  6  1  0  0  0
 81  9  1  0  0  0
 82 10  1  0  0  0
 82 13  1  0  0  0
 83 20  1  0  0  0
 83 23  1  0  0  0
 84 25  1  0  0  0
 84 28  1  0  0  0
 85 30  1  0  0  0
 85 33  1  0  0  0
 86 35  1  0  0  0
 86 38  1  0  0  0
 87 39  1  0  0  0
 87 42  1  0  0  0
 88 43  1  0  0  0
 88 46  1  0  0  0
 57 17  2  0  0  0
 58 59  2  0  0  0
 60 61  2  0  0  0
 62 63  2  0  0  0
 64 56  2  0  0  0
 65 66  2  0  0  0
 67 68  2  0  0  0
 69 70  2  0  0  0
 80  3  2  0  0  0
 80  4  2  0  0  0
 81  7  2  0  0  0
 81  8  2  0  0  0
 82 11  2  0  0  0
 82 12  2  0  0  0
 83 21  2  0  0  0
 83 22  2  0  0  0
 84 26  2  0  0  0
 84 27  2  0  0  0
 85 31  2  0  0  0
 85 32  2  0  0  0
 86 36  2  0  0  0
 86 37  2  0  0  0
 87 40  2  0  0  0
 87 41  2  0  0  0
 88 44  2  0  0  0
 88 45  2  0  0  0
M  CHG  8   5  -1   9  -1  13  -1  23  -1  28  -1  33  -1  38  -1  42  -1
M  CHG  1  46  -1
M  END
> <rmsd>
0.626550496

$$$$
CHEMBL394398 PubChem-44437711


 56 57  0  0  0  0  0  0  0  0999 V2000
   -4.2415  -13.2284  -19.9208 C   0  0  0  0  0
   -3.6158  -12.1385  -19.0658 C   0  0  0  0  0
   -4.3288  -10.8094  -19.2913 C   0  0  0  0  0
   -4.0067  -10.2307  -20.6639 C   0  0  0  0  0
   -4.0598   -9.8292  -18.1379 C   0  0  0  0  0
   -5.0847   -7.6068  -18.9398 C   0  0  0  0  0
   -6.2730   -6.7036  -18.8860 C   0  0  0  0  0
   -7.3852   -7.1176  -19.8490 C   0  0  0  0  0
   -6.9661   -7.1360  -21.3181 C   0  0  0  0  0
   -6.9290   -5.7591  -21.8927 C   0  0  0  0  0
   -5.8603   -4.4108  -17.9380 C   0  0  0  0  0
   -5.7090   -2.9401  -18.1411 C   0  0  0  0  0
   -6.6975   -2.3975  -19.1719 C   0  0  0  0  0
   -6.7965   -0.8770  -19.1028 C   0  0  0  0  0
   -7.4967   -0.4404  -17.8600 C   0  0  0  0  0
   -3.6716   -2.7530  -19.7024 C   0  0  0  0  0
   -2.3334   -2.1165  -19.9181 C   0  0  0  0  0
   -2.5154   -0.6891  -20.4041 C   0  0  0  0  0
   -2.5647    0.2511  -19.2474 C   0  0  0  0  0
   -3.7805    0.8437  -18.8775 C   0  0  0  0  0
   -3.8325    1.7150  -17.7853 C   0  0  0  0  0
   -2.6698    1.9981  -17.0635 C   0  0  0  0  0
   -1.4532    1.4153  -17.4381 C   0  0  0  0  0
   -1.4007    0.5415  -18.5279 C   0  0  0  0  0
   -0.2064   -3.2747  -20.6037 C   0  0  0  0  0
    0.6459   -3.8870  -21.6828 C   0  0  0  0  0
   -0.1924   -4.5684  -22.7543 C   0  0  0  0  0
    0.4521   -5.9102  -23.0500 C   0  0  0  0  0
    1.7216   -5.9799  -22.2290 C   0  0  0  0  0
    1.5481   -4.9682  -21.1203 C   0  0  0  0  0
   -2.6539   -9.2971  -18.0067 C   0  0  0  0  0
   -0.2840   -9.1615  -18.8930 C   0  0  0  0  0
    0.6453  -10.0692  -19.6829 C   0  0  0  0  0
    1.6262  -10.7780  -18.7609 C   0  0  0  0  0
    0.9394  -11.7636  -17.8713 C   0  0  0  0  0
   -0.3093   -7.8013  -19.5090 C   0  0  0  0  0
   -5.0630   -8.7651  -18.0964 N   0  0  0  0  0
   -5.9075   -5.3051  -19.0507 N   0  0  0  0  0
   -4.3288   -2.5658  -18.4438 N   0  0  0  0  0
   -1.5476   -2.8653  -20.8865 N   0  0  0  0  0
    1.4615   -2.8535  -22.2996 N   0  0  0  0  0
   -1.6236   -9.7317  -18.8964 N   0  0  0  0  0
   -4.1356   -7.3650  -19.7344 O   0  0  0  0  0
   -7.9725   -5.0540  -21.9208 O   0  0  0  0  0
   -5.7401   -5.2634  -22.4103 O   0  0  0  0  0
   -5.9687   -4.8548  -16.7641 O   0  0  0  0  0
   -6.8811    0.2474  -17.0045 O   0  0  0  0  0
   -8.8277   -0.7806  -17.6478 O   0  0  0  0  0
   -4.2501   -3.3564  -20.6444 O   0  0  0  0  0
   -2.7212    2.8566  -15.9748 O   0  0  0  0  0
    0.2973   -3.0310  -19.4755 O   0  0  0  0  0
   -2.3865   -8.4840  -17.0810 O   0  0  0  0  0
    0.3265  -12.7462  -18.3645 O   0  0  0  0  0
    0.9973  -11.6031  -16.4909 O   0  0  0  0  0
    0.1167   -6.8089  -18.8609 O   0  0  0  0  0
   -0.8003   -7.6253  -20.7963 O   0  0  0  0  0
  1  2  1  0  0  0
  3  2  1  0  0  0
  3  4  1  0  0  0
  3  5  1  0  0  0
  5 37  1  0  0  0
  5 31  1  0  0  0
  7  6  1  0  0  0
  7  8  1  0  0  0
  7 38  1  0  0  0
  8  9  1  0  0  0
  9 10  1  0  0  0
 10 45  1  0  0  0
 12 11  1  0  0  0
 12 13  1  0  0  0
 12 39  1  0  0  0
 13 14  1  0  0  0
 14 15  1  0  0  0
 15 48  1  0  0  0
 17 16  1  0  0  0
 17 18  1  0  0  0
 17 40  1  0  0  0
 18 19  1  0  0  0
 20 21  1  0  0  0
 22 50  1  0  0  0
 22 23  1  0  0  0
 24 19  1  0  0  0
 26 25  1  0  0  0
 26 41  1  0  0  0
 26 27  1  0  0  0
 27 28  1  0  0  0
 28 29  1  0  0  0
 29 30  1  0  0  0
 30 26  1  0  0  0
 31 42  1  0  0  0
 32 42  1  0  0  0
 32 33  1  0  0  0
 32 36  1  0  0  0
 33 34  1  0  0  0
 34 35  1  0  0  0
 35 54  1  0  0  0
 36 56  1  0  0  0
 37  6  1  0  0  0
 38 11  1  0  0  0
 39 16  1  0  0  0
 40 25  1  0  0  0
  6 43  2  0  0  0
 10 44  2  0  0  0
 11 46  2  0  0  0
 15 47  2  0  0  0
 16 49  2  0  0  0
 19 20  2  0  0  0
 21 22  2  0  0  0
 23 24  2  0  0  0
 25 51  2  0  0  0
 31 52  2  0  0  0
 35 53  2  0  0  0
 36 55  2  0  0  0
M  END
> <rmsd>
0.673890293

$$$$
CHEMBL2163717 PubChem-71462246


 38 41  0  0  0  0  0  0  0  0999 V2000
   -7.7411    2.8834  -18.4090 C   0  0  0  0  0
   -5.8281   -1.3522  -19.1995 C   0  0  0  0  0
   -3.6111   -0.7126  -18.6654 C   0  0  0  0  0
   -2.6852    0.2499  -18.0527 C   0  0  0  0  0
   -2.3257    2.2794  -16.8887 C   0  0  0  0  0
   -0.9502    2.0545  -16.8985 C   0  0  0  0  0
   -0.4741    0.8942  -17.5061 C   0  0  0  0  0
   -3.9606   -2.7545  -19.8264 C   0  0  0  0  0
   -4.0753   -5.0468  -20.8465 C   0  0  0  0  0
   -4.4850   -5.9068  -19.6628 C   0  0  0  0  0
   -3.0553   -7.7443  -18.8565 C   0  0  0  0  0
   -3.6263  -10.0056  -19.2646 C   0  0  0  0  0
   -2.4857  -10.4242  -18.5826 C   0  0  0  0  0
   -1.6404   -9.4572  -18.0425 C   0  0  0  0  0
   -5.3520   -2.5110  -19.8387 C   0  0  0  0  0
   -7.2092   -3.0729  -21.3930 C   0  0  0  0  0
   -7.1870   -1.8310  -22.0499 C   0  0  0  0  0
   -8.1604   -1.5144  -22.9994 C   0  0  0  0  0
   -9.1600   -2.4382  -23.3074 C   0  0  0  0  0
   -9.1846   -3.6788  -22.6665 C   0  0  0  0  0
   -8.2103   -4.0048  -21.7083 C   0  0  0  0  0
   -9.1916   -6.2450  -21.3211 C   0  0  0  0  0
   -7.1940    1.7198  -19.0854 N   0  0  0  0  0
   -7.2338   -1.1057  -19.1042 N   0  0  0  0  0
   -4.9484   -0.4838  -18.6363 N   0  0  0  0  0
   -3.1653    1.3787  -17.4626 N   0  0  0  0  0
   -1.3444    0.0163  -18.0700 N   0  0  0  0  0
   -3.1350   -1.8415  -19.2509 N   0  0  0  0  0
   -3.8910   -8.6791  -19.3902 N   0  0  0  0  0
   -1.9388   -8.1396  -18.1887 N   0  0  0  0  0
   -7.8857    0.3107  -18.3534 S   0  0  0  0  0
   -7.5774    0.2832  -16.8823 O   0  0  0  0  0
   -9.3759    0.3248  -18.5503 O   0  0  0  0  0
   -3.3715   -3.8920  -20.4017 O   0  0  0  0  0
   -3.3283   -6.3823  -18.9885 O   0  0  0  0  0
   -6.2326   -3.4168  -20.4471 O   0  0  0  0  0
   -8.2188   -5.2436  -21.0574 O   0  0  0  0  0
   -2.0900  -12.2783  -18.3943 Br  0  0  0  0  0
  1 23  1  0  0  0
  3 25  1  0  0  0
  3  4  1  0  0  0
  4 27  1  0  0  0
  5 26  1  0  0  0
  6  7  1  0  0  0
  8 28  1  0  0  0
  8 34  1  0  0  0
  9 34  1  0  0  0
  9 10  1  0  0  0
 10 35  1  0  0  0
 11 35  1  0  0  0
 11 30  1  0  0  0
 12 29  1  0  0  0
 13 38  1  0  0  0
 13 14  1  0  0  0
 15 36  1  0  0  0
 15  2  1  0  0  0
 16 36  1  0  0  0
 17 18  1  0  0  0
 19 20  1  0  0  0
 21 37  1  0  0  0
 21 16  1  0  0  0
 22 37  1  0  0  0
 24  2  1  0  0  0
 31 23  1  0  0  0
 31 24  1  0  0  0
  2 25  2  0  0  0
  3 28  2  0  0  0
  4 26  2  0  0  0
  5  6  2  0  0  0
  7 27  2  0  0  0
  8 15  2  0  0  0
 11 29  2  0  0  0
 12 13  2  0  0  0
 14 30  2  0  0  0
 16 17  2  0  0  0
 18 19  2  0  0  0
 20 21  2  0  0  0
 31 32  2  0  0  0
 31 33  2  0  0  0
M  END
> <rmsd>
0.860311031

$$$$
CHEMBL348912 PubChem-467307


 55 61  0  0  0  0  0  0  0  0999 V2000
   -3.5976   -1.0246  -21.0376 O   0  0  0  0  0
   -2.8847   -2.1029  -19.1536 O   0  0  0  0  0
    0.5010   -4.9763  -17.0590 O   0  0  0  0  0
   -2.6703   -8.5782  -17.1401 O   0  0  0  0  0
   -4.0918   -8.1396  -19.8256 O   0  0  0  0  0
   -7.3212   -5.6944  -22.4192 O   0  0  0  0  0
   -7.1792   -5.0529  -17.6572 O   0  0  0  0  0
  -10.8812   -6.4028  -14.1864 O   0  0  0  0  0
  -10.6460   -4.2236  -12.3924 O   0  0  0  0  0
   -8.3886   -2.5189  -12.5738 O   0  0  0  0  0
   -6.6095   -7.5486  -15.8672 O   0  0  0  0  0
   -4.2393   -3.9801  -17.3816 O   0  0  0  0  0
   -7.7214   -1.1690  -19.9709 O   0  0  0  0  0
   -8.9018    0.2018  -17.8308 O   0  0  0  0  0
   -7.6300    0.2248  -15.3303 O   0  0  0  0  0
   -0.2338    1.9060  -17.0440 O   0  0  0  0  0
   -1.3677    4.2170  -18.1548 O   0  0  0  0  0
   -3.3484    3.9621  -20.1558 O   0  0  0  0  0
   -3.0598   -0.9326  -19.9049 C   0  0  0  0  0
   -2.7466   -2.1019  -17.7348 C   0  0  0  0  0
   -1.5542   -2.9809  -17.3234 C   0  0  0  0  0
   -1.8687   -4.4587  -17.2644 C   0  0  0  0  0
   -0.8251   -5.3921  -17.1363 C   0  0  0  0  0
   -1.1100   -6.7550  -17.0957 C   0  0  0  0  0
   -2.4262   -7.2076  -17.1631 C   0  0  0  0  0
   -3.4868   -6.2911  -17.2699 C   0  0  0  0  0
   -4.9092   -6.8135  -17.3807 C   0  0  0  0  0
   -5.5539   -6.5373  -18.7189 C   0  0  0  0  0
   -5.1077   -7.1964  -19.8871 C   0  0  0  0  0
   -5.7029   -6.9156  -21.1186 C   0  0  0  0  0
   -6.7466   -5.9877  -21.1947 C   0  0  0  0  0
   -7.2122   -5.3570  -20.0423 C   0  0  0  0  0
   -6.6328   -5.6402  -18.8031 C   0  0  0  0  0
   -6.5795   -5.1613  -16.3615 C   0  0  0  0  0
   -7.6274   -4.9358  -15.2985 C   0  0  0  0  0
   -8.7671   -5.7756  -15.2218 C   0  0  0  0  0
   -9.7683   -5.5473  -14.2516 C   0  0  0  0  0
   -9.6456   -4.4599  -13.3575 C   0  0  0  0  0
   -8.5161   -3.6041  -13.4456 C   0  0  0  0  0
   -7.5116   -3.8425  -14.4152 C   0  0  0  0  0
   -5.7831   -6.4669  -16.1751 C   0  0  0  0  0
   -3.2026   -4.9110  -17.3050 C   0  0  0  0  0
   -4.0213   -2.6119  -17.0539 C   0  0  0  0  0
   -5.2489   -1.7992  -17.3086 C   0  0  0  0  0
   -5.8925   -1.8300  -18.5519 C   0  0  0  0  0
   -7.1003   -1.1478  -18.7360 C   0  0  0  0  0
   -7.6836   -0.4527  -17.6633 C   0  0  0  0  0
   -7.0482   -0.4357  -16.4123 C   0  0  0  0  0
   -5.8361   -1.1113  -16.2427 C   0  0  0  0  0
   -2.6363    0.4037  -19.4137 C   0  0  0  0  0
   -1.6507    0.5342  -18.4281 C   0  0  0  0  0
   -1.2212    1.8008  -18.0117 C   0  0  0  0  0
   -1.7828    2.9533  -18.5824 C   0  0  0  0  0
   -2.7730    2.8299  -19.5740 C   0  0  0  0  0
   -3.1890    1.5634  -19.9843 C   0  0  0  0  0
 19  2  1  0  0  0
 19 50  1  0  0  0
 20  2  1  0  0  0
 20 21  1  0  0  0
 21 22  1  0  0  0
 23  3  1  0  0  0
 23 24  1  0  0  0
 25  4  1  0  0  0
 25 26  1  0  0  0
 27 26  1  0  0  0
 27 28  1  0  0  0
 29  5  1  0  0  0
 29 30  1  0  0  0
 31  6  1  0  0  0
 31 32  1  0  0  0
 33  7  1  0  0  0
 33 28  1  0  0  0
 34  7  1  0  0  0
 34 35  1  0  0  0
 34 41  1  0  0  0
 36 37  1  0  0  0
 37  8  1  0  0  0
 38  9  1  0  0  0
 38 39  1  0  0  0
 39 10  1  0  0  0
 40 35  1  0  0  0
 41 11  1  0  0  0
 41 27  1  0  0  0
 42 12  1  0  0  0
 42 22  1  0  0  0
 43 12  1  0  0  0
 43 44  1  0  0  0
 43 20  1  0  0  0
 45 46  1  0  0  0
 46 13  1  0  0  0
 47 14  1  0  0  0
 47 48  1  0  0  0
 48 15  1  0  0  0
 49 44  1  0  0  0
 51 52  1  0  0  0
 52 16  1  0  0  0
 53 17  1  0  0  0
 53 54  1  0  0  0
 54 18  1  0  0  0
 55 50  1  0  0  0
 19  1  2  0  0  0
 22 23  2  0  0  0
 24 25  2  0  0  0
 26 42  2  0  0  0
 28 29  2  0  0  0
 30 31  2  0  0  0
 32 33  2  0  0  0
 35 36  2  0  0  0
 37 38  2  0  0  0
 39 40  2  0  0  0
 44 45  2  0  0  0
 46 47  2  0  0  0
 48 49  2  0  0  0
 50 51  2  0  0  0
 52 53  2  0  0  0
 54 55  2  0  0  0
M  END
> <rmsd>
0.838895619

$$$$
CHEMBL1256253 PubChem-49781031 PubChem-49781032


 50 55  0  0  0  0  0  0  0  0999 V2000
   -3.1196   -6.9617  -18.2185 S   0  0  0  0  0
   -7.1121   -0.8979  -17.3617 S   0  0  0  0  0
   -5.2142    0.2545  -19.4432 S   0  0  0  0  0
   -2.3166   -7.9936  -17.4775 O   0  0  0  0  0
   -4.3585   -7.6247  -18.7538 O   0  0  0  0  0
   -8.0619   -5.0043  -22.6305 O   0  0  0  0  0
   -7.3914   -0.5948  -15.9162 O   0  0  0  0  0
   -8.2314   -0.3177  -18.1805 O   0  0  0  0  0
   -2.1387   -6.3070  -19.5406 C   0  0  0  0  0
   -0.7487   -6.3386  -19.3938 C   0  0  0  0  0
    0.0855   -5.8135  -20.3784 C   0  0  0  0  0
   -0.4621   -5.2347  -21.5211 C   0  0  0  0  0
   -1.8509   -5.1680  -21.6980 C   0  0  0  0  0
   -2.7011   -5.7273  -20.7035 C   0  0  0  0  0
   -4.0880   -5.6998  -20.8997 C   0  0  0  0  0
   -4.6351   -5.1366  -22.0490 C   0  0  0  0  0
   -3.8043   -4.5823  -23.0190 C   0  0  0  0  0
   -2.4113   -4.5779  -22.8594 C   0  0  0  0  0
   -0.5014   -3.0792  -23.5483 C   0  0  0  0  0
   -1.9937   -4.0562  -25.2807 C   0  0  0  0  0
   -4.3168   -4.7135  -17.8648 C   0  0  0  0  0
   -4.2815   -3.3704  -17.1599 C   0  0  0  0  0
   -5.2760   -3.3047  -16.0042 C   0  0  0  0  0
   -6.7243   -3.4855  -16.4599 C   0  0  0  0  0
   -7.3312   -3.2168  -18.8758 C   0  0  0  0  0
   -7.7523   -4.5498  -18.9612 C   0  0  0  0  0
   -8.0053   -5.1348  -20.2011 C   0  0  0  0  0
   -7.8384   -4.4021  -21.3867 C   0  0  0  0  0
   -7.4117   -3.0571  -21.3152 C   0  0  0  0  0
   -7.1606   -2.4868  -20.0582 C   0  0  0  0  0
   -8.0461   -2.4107  -23.6835 C   0  0  0  0  0
   -8.4884   -1.0298  -24.1614 C   0  0  0  0  0
   -6.6648    0.0400  -23.0815 C   0  0  0  0  0
   -6.1224   -1.2822  -22.5461 C   0  0  0  0  0
   -8.4761   -6.3566  -22.7713 C   0  0  0  0  0
   -5.5895   -0.1604  -17.8478 C   0  0  0  0  0
   -4.5033    0.1457  -17.0204 C   0  0  0  0  0
   -3.4292    0.6955  -17.7336 C   0  0  0  0  0
   -3.6752    0.8190  -19.0938 C   0  0  0  0  0
   -2.7318    1.3394  -19.9754 C   0  0  0  0  0
   -1.4972    1.7490  -19.4503 C   0  0  0  0  0
   -1.2325    1.6319  -18.0727 C   0  0  0  0  0
   -2.2008    1.1017  -17.2043 C   0  0  0  0  0
   -4.4789   -0.0798  -15.5455 C   0  0  0  0  0
   -1.5952   -3.9777  -23.8842 N   0  0  0  0  0
   -3.5525   -5.6964  -17.1175 N   0  0  0  0  0
   -7.0457   -2.6224  -17.5953 N   0  0  0  0  0
   -7.2041   -2.2636  -22.4979 N   0  0  0  0  0
   -7.3196   -0.1764  -24.3705 N   0  0  0  0  0
    0.3149    2.1466  -17.4382 Cl  0  0  0  0  0
  1  9  1  0  0  0
  1 46  1  0  0  0
  2 47  1  0  0  0
  2 36  1  0  0  0
 10 11  1  0  0  0
 12 13  1  0  0  0
 14 15  1  0  0  0
 14  9  1  0  0  0
 16 17  1  0  0  0
 18 45  1  0  0  0
 18 13  1  0  0  0
 19 45  1  0  0  0
 20 45  1  0  0  0
 21 46  1  0  0  0
 21 22  1  0  0  0
 22 23  1  0  0  0
 23 24  1  0  0  0
 24 47  1  0  0  0
 26 27  1  0  0  0
 28 29  1  0  0  0
 28  6  1  0  0  0
 29 48  1  0  0  0
 30 25  1  0  0  0
 31 48  1  0  0  0
 31 32  1  0  0  0
 32 49  1  0  0  0
 33 49  1  0  0  0
 33 34  1  0  0  0
 34 48  1  0  0  0
 35  6  1  0  0  0
 36  3  1  0  0  0
 37 38  1  0  0  0
 39  3  1  0  0  0
 39 40  1  0  0  0
 41 42  1  0  0  0
 42 50  1  0  0  0
 43 38  1  0  0  0
 44 37  1  0  0  0
 47 25  1  0  0  0
  1  4  2  0  0  0
  1  5  2  0  0  0
  2  7  2  0  0  0
  2  8  2  0  0  0
  9 10  2  0  0  0
 11 12  2  0  0  0
 13 14  2  0  0  0
 15 16  2  0  0  0
 17 18  2  0  0  0
 25 26  2  0  0  0
 27 28  2  0  0  0
 29 30  2  0  0  0
 36 37  2  0  0  0
 38 39  2  0  0  0
 40 41  2  0  0  0
 42 43  2  0  0  0
M  END
> <rmsd>
0.733625591

$$$$
CHEMBL1240815 PubChem-135908309 PubChem-136259996


 52 56  0  0  0  0  0  0  0  0999 V2000
   -2.7045    0.8529  -20.1818 N   0  0  0  0  0
   -0.8818    1.6261  -21.5608 N   0  0  0  0  0
   -0.7533    1.7354  -19.1486 N   0  0  0  0  0
   -3.2702    0.6647  -16.7282 N   0  0  0  0  0
   -4.4017    0.1408  -18.6175 N   0  0  0  0  0
   -4.0595   -9.0747  -17.5790 N   0  0  0  0  0
   -3.1402   -9.6917  -15.4902 N   0  0  0  0  0
   -4.5063  -10.5748  -13.7130 N   0  0  0  0  0
   -8.7306   -4.6727  -20.2495 N   0  0  0  0  0
   -1.4556    1.4009  -20.2793 C   0  0  0  0  0
   -1.2751    1.5320  -17.9029 C   0  0  0  0  0
   -2.5438    0.9800  -17.8160 C   0  0  0  0  0
   -4.4110    0.1396  -17.2588 C   0  0  0  0  0
   -3.2158    0.6612  -18.9422 C   0  0  0  0  0
   -5.4012   -0.4179  -19.5186 C   0  0  0  0  0
   -7.5247   -1.1858  -19.4124 C   0  0  0  0  0
   -6.6820   -2.3849  -19.7988 C   0  0  0  0  0
   -5.2661   -1.9182  -19.5756 C   0  0  0  0  0
   -3.3997   -3.0307  -20.0046 C   0  0  0  0  0
   -6.2142   -6.5555  -20.7187 C   0  0  0  0  0
   -4.9427   -7.3465  -20.4799 C   0  0  0  0  0
   -5.1124   -8.7688  -20.9589 C   0  0  0  0  0
   -4.3105   -9.5704  -19.9786 C   0  0  0  0  0
   -3.8874   -8.5509  -18.9358 C   0  0  0  0  0
   -5.3012   -9.4310  -17.1412 C   0  0  0  0  0
   -5.4811   -9.9370  -15.8552 C   0  0  0  0  0
   -4.3644  -10.0638  -15.0336 C   0  0  0  0  0
   -2.9790   -9.2014  -16.7482 C   0  0  0  0  0
   -9.7609   -3.7851  -20.7596 C   0  0  0  0  0
  -10.8777   -3.6670  -19.7420 C   0  0  0  0  0
  -11.9080   -2.6594  -20.2142 C   0  0  0  0  0
   -8.4023   -1.5528  -18.2302 C   0  0  0  0  0
   -0.6194    1.8378  -16.8728 O   0  0  0  0  0
   -6.6939   -0.0997  -19.0695 O   0  0  0  0  0
   -4.4109   -2.2904  -20.6186 O   0  0  0  0  0
   -6.9197   -2.6959  -21.1435 O   0  0  0  0  0
   -7.4653   -4.7888  -22.6059 O   0  0  0  0  0
   -5.9659   -5.2032  -20.4774 O   0  0  0  0  0
   -4.6398   -7.3775  -19.1103 O   0  0  0  0  0
   -1.8239   -8.8720  -17.1390 O   0  0  0  0  0
   -3.1788  -10.0914  -20.6065 O   0  0  0  0  0
  -12.6297   -3.1842  -21.2893 O   0  0  0  0  0
  -13.4910   -0.7881  -21.9433 O   0  0  0  0  0
  -11.0990   -1.4250  -22.8010 O   0  0  0  0  0
  -13.3789   -2.5491  -23.8678 O   0  0  0  0  0
   -9.2557   -0.4923  -17.9211 O   0  0  0  0  0
  -10.1721    0.7062  -15.7854 O   0  0  0  0  0
   -9.6690   -1.8451  -15.5338 O   0  0  0  0  0
   -7.6483    0.0313  -15.7249 O   0  0  0  0  0
   -7.2681   -4.3564  -21.1682 P   0  0  0  0  0
  -12.6711   -1.9518  -22.4533 P   0  0  0  0  0
   -9.2124   -0.3716  -16.2307 P   0  0  0  0  0
  3 11  1  0  0  0
  5 14  1  0  0  0
  6 25  1  0  0  0
 10  2  1  0  0  0
 10  3  1  0  0  0
 11 12  1  0  0  0
 12  4  1  0  0  0
 13  5  1  0  0  0
 14  1  1  0  0  0
 15  5  1  0  0  0
 15 34  1  0  0  0
 16 34  1  0  0  0
 16 17  1  0  0  0
 16 32  1  0  0  0
 17 18  1  0  0  0
 17 36  1  0  0  0
 18 35  1  0  0  0
 18 15  1  0  0  0
 19 35  1  0  0  0
 20 38  1  0  0  0
 21 20  1  0  0  0
 21 22  1  0  0  0
 21 39  1  0  0  0
 22 23  1  0  0  0
 23 24  1  0  0  0
 23 41  1  0  0  0
 24 39  1  0  0  0
 24  6  1  0  0  0
 26 27  1  0  0  0
 27  8  1  0  0  0
 28  7  1  0  0  0
 28  6  1  0  0  0
 29  9  1  0  0  0
 29 30  1  0  0  0
 30 31  1  0  0  0
 31 42  1  0  0  0
 32 46  1  0  0  0
 50 36  1  0  0  0
 50 38  1  0  0  0
 50  9  1  0  0  0
 51 42  1  0  0  0
 51 44  1  0  0  0
 51 45  1  0  0  0
 52 46  1  0  0  0
 52 48  1  0  0  0
 52 49  1  0  0  0
 10  1  2  0  0  0
 11 33  2  0  0  0
 13  4  2  0  0  0
 14 12  2  0  0  0
 25 26  2  0  0  0
 27  7  2  0  0  0
 28 40  2  0  0  0
 50 37  2  0  0  0
 51 43  2  0  0  0
 52 47  2  0  0  0
M  CHG  4  44  -1  45  -1  48  -1  49  -1
M  END
> <rmsd>
0.8071509

$$$$
CHEMBL3559510 PubChem-118753811


 54 58  0  0  0  0  0  0  0  0999 V2000
   -6.5602    2.2738  -22.3735 O   0  0  0  0  0
   -4.6540    1.8633  -20.6393 O   0  0  0  0  0
   -7.1064    1.3122  -19.8455 O   0  0  0  0  0
   -6.6251    0.3126  -16.4873 O   0  0  0  0  0
   -8.7389   -0.4767  -18.8845 O   0  0  0  0  0
   -5.2803   -2.0732  -17.0384 O   0  0  0  0  0
   -4.4752   -4.1224  -15.6290 O   0  0  0  0  0
   -5.9937   -4.6906  -17.6742 O   0  0  0  0  0
   -3.3505   -3.8185  -17.9673 O   0  0  0  0  0
   -2.5867   -3.3423  -20.4281 O   0  0  0  0  0
   -5.0148   -2.6080  -19.8693 O   0  0  0  0  0
   -4.3570   -5.2790  -20.1035 O   0  0  0  0  0
   -4.5084   -8.0027  -19.7141 O   0  0  0  0  0
   -2.0200   -8.0266  -17.6456 O   0  0  0  0  0
   -4.1805   -8.0283  -16.2065 O   0  0  0  0  0
  -10.2558   -5.6943  -20.2791 O   0  0  0  0  0
   -8.2500   -5.4572  -21.3535 O   0  0  0  0  0
   -5.7571   -0.2690  -21.6864 O   0  0  0  0  0
   -5.9782    1.3080  -21.1146 P   0  0  0  0  0
   -4.7765   -3.6917  -17.0461 P   0  0  0  0  0
   -3.7936   -3.7522  -19.6103 P   0  0  0  0  0
   -6.5519    0.5073  -18.8430 C   0  0  0  0  0
   -6.5113    1.2473  -17.5296 C   0  0  0  0  0
   -4.0066    1.5598  -17.4337 C   0  0  0  0  0
   -2.2211    0.0790  -17.6761 C   0  0  0  0  0
   -1.7938    2.3923  -17.2775 C   0  0  0  0  0
   -3.1660    2.6003  -17.2548 C   0  0  0  0  0
   -5.1576    3.3367  -17.1874 C   0  0  0  0  0
   -7.3120   -0.7999  -17.0155 C   0  0  0  0  0
   -7.4047   -0.6929  -18.5274 C   0  0  0  0  0
   -6.6093   -2.0868  -16.6056 C   0  0  0  0  0
   -3.2193   -6.0603  -20.3426 C   0  0  0  0  0
   -3.2638   -7.3606  -19.5476 C   0  0  0  0  0
   -5.0468   -8.2241  -18.4284 C   0  0  0  0  0
   -4.3111   -7.3636  -17.4286 C   0  0  0  0  0
   -2.9828   -7.1111  -18.0815 C   0  0  0  0  0
   -7.0581   -7.1439  -19.3504 C   0  0  0  0  0
   -8.4222   -6.8390  -19.3002 C   0  0  0  0  0
   -9.1891   -7.3570  -18.2525 C   0  0  0  0  0
   -8.5909   -8.1594  -17.2811 C   0  0  0  0  0
   -7.2241   -8.4353  -17.3702 C   0  0  0  0  0
   -9.4054   -8.7220  -16.1646 C   0  0  0  0  0
   -9.7306  -10.1880  -16.4052 C   0  0  0  0  0
  -10.8163  -10.3303  -17.4612 C   0  0  0  0  0
   -9.0286   -5.9761  -20.3259 C   0  0  0  0  0
   -5.2704    2.0009  -17.3964 N   0  0  0  0  0
   -3.5713    0.2944  -17.6505 N   0  0  0  0  0
   -1.3455    1.1200  -17.4912 N   0  0  0  0  0
   -3.8583    3.7433  -17.0956 N   0  0  0  0  0
   -0.8768    3.4653  -17.0938 N   0  0  0  0  0
   -6.4797   -7.9269  -18.3924 N   0  0  0  0  0
  -11.0926  -11.7347  -17.7150 N   0  0  0  0  0
  -10.2458  -12.4542  -18.2446 N   0  0  0  0  0
   -9.3997  -13.1733  -18.7734 N   0  0  0  0  0
 19  1  1  0  0  0
 19  3  1  0  0  0
 19 18  1  0  0  0
 20  6  1  0  0  0
 20  8  1  0  0  0
 20  9  1  0  0  0
 21  9  1  0  0  0
 21 11  1  0  0  0
 21 12  1  0  0  0
 22  3  1  0  0  0
 22 23  1  0  0  0
 23 46  1  0  0  0
 23  4  1  0  0  0
 25 47  1  0  0  0
 26 48  1  0  0  0
 26 50  1  0  0  0
 27 49  1  0  0  0
 27 24  1  0  0  0
 28 46  1  0  0  0
 29  4  1  0  0  0
 29 30  1  0  0  0
 29 31  1  0  0  0
 30  5  1  0  0  0
 30 22  1  0  0  0
 31  6  1  0  0  0
 32 12  1  0  0  0
 33 32  1  0  0  0
 33 13  1  0  0  0
 34 13  1  0  0  0
 34 35  1  0  0  0
 34 51  1  0  0  0
 35 36  1  0  0  0
 35 15  1  0  0  0
 36 14  1  0  0  0
 36 33  1  0  0  0
 37 38  1  0  0  0
 38 45  1  0  0  0
 39 40  1  0  0  0
 41 51  1  0  0  0
 42 40  1  0  0  0
 42 43  1  0  0  0
 43 44  1  0  0  0
 44 52  1  0  0  0
 45 17  1  0  0  0
 46 24  1  0  0  0
 19  2  2  0  0  0
 20  7  2  0  0  0
 21 10  2  0  0  0
 24 47  2  0  0  0
 25 48  2  0  0  0
 26 27  2  0  0  0
 28 49  2  0  0  0
 38 39  2  0  0  0
 40 41  2  0  0  0
 45 16  2  0  0  0
 51 37  2  0  0  0
 52 53  2  0  0  0
 53 54  2  0  0  0
M  CHG  4   8  -1  51   1  53   1  54  -1
M  END
> <rmsd>
0.614224076

$$$$
CHEMBL267067 PubChem-44363319


 83 87  0  0  0  0  0  0  0  0999 V2000
   -0.2869    3.3710  -15.7743 C   0  0  0  0  0
   -1.5812    2.0430  -17.3977 C   0  0  0  0  0
   -1.6657    0.9425  -16.5260 C   0  0  0  0  0
   -2.2950   -0.2291  -16.9426 C   0  0  0  0  0
   -2.8159   -0.3238  -18.2457 C   0  0  0  0  0
   -3.5241   -1.5797  -18.6682 C   0  0  0  0  0
   -5.0123   -1.2913  -18.8571 C   0  0  0  0  0
   -5.7325   -2.3614  -19.6106 C   0  0  0  0  0
   -7.6240   -3.9354  -19.7622 C   0  0  0  0  0
   -9.0024   -3.9651  -19.1113 C   0  0  0  0  0
   -7.0710   -5.3634  -19.8639 C   0  0  0  0  0
   -4.8049   -6.5220  -20.0971 C   0  0  0  0  0
   -3.3106   -6.3837  -20.1555 C   0  0  0  0  0
   -2.8832   -5.1199  -20.9199 C   0  0  0  0  0
   -3.3750   -5.1121  -22.3630 C   0  0  0  0  0
   -2.5229   -6.0369  -23.2024 C   0  0  0  0  0
   -3.2953   -3.6981  -22.9077 C   0  0  0  0  0
   -3.2060   -5.3742  -17.8451 C   0  0  0  0  0
   -1.8162   -7.3685  -18.3545 C   0  0  0  0  0
   -0.9450   -8.1293  -19.3094 C   0  0  0  0  0
   -0.1021   -7.1842  -20.1488 C   0  0  0  0  0
   -0.1528   -7.7298  -21.5680 C   0  0  0  0  0
   -1.3124   -8.7130  -21.6264 C   0  0  0  0  0
   -2.5770  -10.0143  -19.8657 C   0  0  0  0  0
   -3.2005  -10.9061  -20.9014 C   0  0  0  0  0
   -2.3590  -12.1146  -21.1389 C   0  0  0  0  0
   -2.1650  -13.0704  -20.1242 C   0  0  0  0  0
   -1.3776  -14.2013  -20.3543 C   0  0  0  0  0
   -0.7809  -14.3895  -21.6119 C   0  0  0  0  0
   -0.9681  -13.4401  -22.6216 C   0  0  0  0  0
   -1.7495  -12.2993  -22.3817 C   0  0  0  0  0
   -7.7628   -6.0796  -20.9821 C   0  0  0  0  0
  -10.0091   -7.2492  -20.8324 C   0  0  0  0  0
  -10.6203   -8.2553  -19.8432 C   0  0  0  0  0
  -10.0027   -9.6463  -19.9921 C   0  0  0  0  0
  -10.4549   -7.7612  -18.4147 C   0  0  0  0  0
  -10.4276   -7.5239  -22.2842 C   0  0  0  0  0
  -11.9361   -7.7508  -22.4447 C   0  0  0  0  0
  -12.7332   -6.5184  -22.1823 C   0  0  0  0  0
  -13.3985   -4.7424  -20.5995 C   0  0  0  0  0
  -13.7543   -4.7610  -19.1120 C   0  0  0  0  0
  -14.7240   -5.8834  -18.8257 C   0  0  0  0  0
  -12.5318   -4.9029  -18.2179 C   0  0  0  0  0
  -12.6781   -3.4819  -21.0081 C   0  0  0  0  0
  -13.2242   -2.1511  -20.5841 C   0  0  0  0  0
  -14.2391   -1.6274  -21.6002 C   0  0  0  0  0
  -12.1472   -1.1540  -20.2934 C   0  0  0  0  0
  -11.0037    0.2723  -18.5528 C   0  0  0  0  0
  -11.5870    0.8460  -17.2583 C   0  0  0  0  0
  -11.3835    2.3484  -17.1866 C   0  0  0  0  0
  -11.8310    2.8261  -15.8140 C   0  0  0  0  0
  -12.1838    3.0449  -18.2647 C   0  0  0  0  0
   -9.5317   -0.0126  -18.4152 C   0  0  0  0  0
   -8.9258    2.3132  -19.2578 C   0  0  0  0  0
   -7.6271    3.0883  -19.3515 C   0  0  0  0  0
   -6.5178    2.0525  -19.3461 C   0  0  0  0  0
   -7.1309    0.7356  -18.9151 C   0  0  0  0  0
   -6.5425    0.2540  -17.6104 C   0  0  0  0  0
   -5.5156   -1.7128  -16.4271 C   0  0  0  0  0
   -2.7216    0.7685  -19.1263 C   0  0  0  0  0
   -2.1141    1.9543  -18.6973 C   0  0  0  0  0
   -0.9961    3.2422  -17.0033 O   0  0  0  0  0
   -5.4014   -2.5838  -20.8022 O   0  0  0  0  0
   -6.7698   -3.0819  -19.0083 O   0  0  0  0  0
   -5.3237   -7.6703  -20.0331 O   0  0  0  0  0
   -1.7145   -7.6164  -17.1179 O   0  0  0  0  0
   -2.7438  -10.2725  -18.6432 O   0  0  0  0  0
   -4.4852  -11.2873  -20.5215 O   0  0  0  0  0
   -7.6533   -5.6542  -22.1613 O   0  0  0  0  0
  -10.0065   -6.4973  -23.1284 O   0  0  0  0  0
  -13.5022   -6.0756  -23.0767 O   0  0  0  0  0
  -12.6422   -5.8976  -20.9351 O   0  0  0  0  0
  -11.6875   -3.5424  -21.7300 O   0  0  0  0  0
  -11.6043   -0.5159  -21.2389 O   0  0  0  0  0
   -9.1451   -1.0984  -17.8827 O   0  0  0  0  0
   -6.7888    0.8732  -16.5315 O   0  0  0  0  0
   -5.6254   -5.3480  -20.0764 N   0  0  0  0  0
   -2.7436   -6.3676  -18.8076 N   0  0  0  0  0
   -1.7129   -8.9304  -20.2509 N   0  0  0  0  0
   -8.5544   -7.2388  -20.6988 N   0  0  0  0  0
  -11.7472   -0.9165  -18.9395 N   0  0  0  0  0
   -8.5666    0.9780  -18.8219 N   0  0  0  0  0
   -5.6856   -0.9042  -17.6177 N   0  0  0  0  0
  1 62  1  0  0  0
  2 62  1  0  0  0
  3  4  1  0  0  0
  5 60  1  0  0  0
  6  5  1  0  0  0
  7  6  1  0  0  0
  7  8  1  0  0  0
  7 83  1  0  0  0
  8 64  1  0  0  0
  9 64  1  0  0  0
  9 10  1  0  0  0
  9 11  1  0  0  0
 11 77  1  0  0  0
 11 32  1  0  0  0
 13 12  1  0  0  0
 13 14  1  0  0  0
 13 78  1  0  0  0
 14 15  1  0  0  0
 15 16  1  0  0  0
 15 17  1  0  0  0
 18 78  1  0  0  0
 20 19  1  0  0  0
 20 21  1  0  0  0
 20 79  1  0  0  0
 21 22  1  0  0  0
 22 23  1  0  0  0
 23 79  1  0  0  0
 25 24  1  0  0  0
 25 68  1  0  0  0
 25 26  1  0  0  0
 27 28  1  0  0  0
 29 30  1  0  0  0
 31 26  1  0  0  0
 32 80  1  0  0  0
 33 80  1  0  0  0
 33 34  1  0  0  0
 33 37  1  0  0  0
 34 35  1  0  0  0
 34 36  1  0  0  0
 37 70  1  0  0  0
 37 38  1  0  0  0
 38 39  1  0  0  0
 39 72  1  0  0  0
 40 72  1  0  0  0
 40 41  1  0  0  0
 40 44  1  0  0  0
 41 42  1  0  0  0
 41 43  1  0  0  0
 45 44  1  0  0  0
 45 46  1  0  0  0
 45 47  1  0  0  0
 47 81  1  0  0  0
 48 81  1  0  0  0
 48 49  1  0  0  0
 48 53  1  0  0  0
 49 50  1  0  0  0
 50 51  1  0  0  0
 50 52  1  0  0  0
 53 82  1  0  0  0
 54 82  1  0  0  0
 54 55  1  0  0  0
 55 56  1  0  0  0
 57 56  1  0  0  0
 57 58  1  0  0  0
 57 82  1  0  0  0
 58 83  1  0  0  0
 59 83  1  0  0  0
 61  2  1  0  0  0
 77 12  1  0  0  0
 78 19  1  0  0  0
 79 24  1  0  0  0
  2  3  2  0  0  0
  4  5  2  0  0  0
  8 63  2  0  0  0
 12 65  2  0  0  0
 19 66  2  0  0  0
 24 67  2  0  0  0
 26 27  2  0  0  0
 28 29  2  0  0  0
 30 31  2  0  0  0
 32 69  2  0  0  0
 39 71  2  0  0  0
 44 73  2  0  0  0
 47 74  2  0  0  0
 53 75  2  0  0  0
 58 76  2  0  0  0
 60 61  2  0  0  0
M  END
> <rmsd>
0.738978505

$$$$
CHEMBL591446 PubChem-46230271


 90101  0  0  0  0  0  0  0  0999 V2000
   -2.0386  -19.5546  -21.4008 N   0  0  0  0  0
   -2.3846  -20.7484  -19.4852 N   0  0  0  0  0
    0.0451  -20.6110  -22.0164 N   0  0  0  0  0
    0.7783  -22.2831  -20.4886 N   0  0  0  0  0
   -0.5000  -22.8542  -18.5131 N   0  0  0  0  0
   -4.9278   -5.9091  -21.3311 N   0  0  0  0  0
   -3.9999   -5.0963  -23.2328 N   0  0  0  0  0
   -7.0249   -4.7192  -21.4993 N   0  0  0  0  0
   -7.2002   -3.3400  -23.4329 N   0  0  0  0  0
   -5.3901   -3.1504  -25.0367 N   0  0  0  0  0
   -3.1441    1.4142  -19.2604 N   0  0  0  0  0
   -1.3977    1.9316  -17.9125 N   0  0  0  0  0
   -4.4165    3.4424  -18.8644 N   0  0  0  0  0
   -3.3731    4.9637  -17.3626 N   0  0  0  0  0
   -1.2161    4.4868  -16.3627 N   0  0  0  0  0
   -1.7510  -13.4099  -23.2963 N   0  0  0  0  0
   -0.0379  -14.6983  -22.5689 N   0  0  0  0  0
   -3.3193  -13.9994  -21.5504 N   0  0  0  0  0
   -2.4512  -15.5538  -19.9694 N   0  0  0  0  0
   -0.2013  -16.4400  -20.1405 N   0  0  0  0  0
   -2.8591  -19.7956  -20.3363 C   0  0  0  0  0
   -1.2237  -21.1094  -20.0704 C   0  0  0  0  0
   -1.0218  -20.4037  -21.2072 C   0  0  0  0  0
    0.9578  -21.5609  -21.6418 C   0  0  0  0  0
   -0.3097  -22.0813  -19.6889 C   0  0  0  0  0
   -4.1703  -19.1164  -20.1050 C   0  0  0  0  0
   -2.2391  -18.7021  -22.5745 C   0  0  0  0  0
   -2.8153  -19.5086  -23.7236 C   0  0  0  0  0
   -4.0771  -18.7622  -24.0690 C   0  0  0  0  0
   -3.9165  -17.4132  -23.3803 C   0  0  0  0  0
   -3.3102  -16.3248  -24.2674 C   0  0  0  0  0
   -3.6445  -13.1422  -24.8241 C   0  0  0  0  0
   -4.7697  -12.1327  -24.7349 C   0  0  0  0  0
   -4.1822  -10.9857  -23.9348 C   0  0  0  0  0
   -5.2105  -10.5058  -22.9168 C   0  0  0  0  0
   -4.0958   -7.7399  -19.8759 C   0  0  0  0  0
   -3.2431   -7.1081  -18.8083 C   0  0  0  0  0
   -4.1938   -6.1592  -18.1197 C   0  0  0  0  0
   -5.1603   -6.6774  -20.1087 C   0  0  0  0  0
   -3.8459   -5.9225  -22.1578 C   0  0  0  0  0
   -5.2240   -4.5694  -23.0428 C   0  0  0  0  0
   -5.7762   -5.0539  -21.9086 C   0  0  0  0  0
   -7.7393   -3.8484  -22.2779 C   0  0  0  0  0
   -5.9428   -3.6858  -23.8379 C   0  0  0  0  0
   -3.4629   -4.9136  -17.6254 C   0  0  0  0  0
   -4.5507   -0.5581  -19.6228 C   0  0  0  0  0
   -3.9555    0.6891  -20.2392 C   0  0  0  0  0
   -1.9374    1.0233  -18.7741 C   0  0  0  0  0
   -2.3189    2.9140  -17.8846 C   0  0  0  0  0
   -3.3589    2.6097  -18.6912 C   0  0  0  0  0
   -4.4216    4.6289  -18.1834 C   0  0  0  0  0
   -2.3072    4.1200  -17.1962 C   0  0  0  0  0
   -6.1814    0.7406  -20.7067 C   0  0  0  0  0
   -5.8651   -0.6911  -20.3395 C   0  0  0  0  0
   -7.1882    1.3608  -19.7391 C   0  0  0  0  0
   -2.5052  -12.4572  -24.0980 C   0  0  0  0  0
   -0.4700  -13.8058  -23.5083 C   0  0  0  0  0
   -1.1037  -14.8341  -21.7592 C   0  0  0  0  0
   -2.1263  -14.0628  -22.1903 C   0  0  0  0  0
   -3.4761  -14.7586  -20.4230 C   0  0  0  0  0
   -1.2516  -15.6089  -20.6186 C   0  0  0  0  0
   -4.2648  -15.8530  -25.1794 O   0  0  0  0  0
   -2.0036  -15.6438  -26.5623 O   0  0  0  0  0
   -3.2644  -13.3872  -26.1475 O   0  0  0  0  0
   -4.6923   -9.4624  -22.1365 O   0  0  0  0  0
   -5.4753  -11.2176  -20.2865 O   0  0  0  0  0
   -4.7294   -8.8973  -19.3943 O   0  0  0  0  0
   -5.2388   -5.8072  -19.0041 O   0  0  0  0  0
   -3.0905   -4.0986  -18.7024 O   0  0  0  0  0
   -5.1913   -2.7106  -17.9107 O   0  0  0  0  0
   -3.7265   -1.6723  -19.8400 O   0  0  0  0  0
   -4.9947    1.5034  -20.7319 O   0  0  0  0  0
   -5.7190   -1.4290  -21.5155 O   0  0  0  0  0
   -6.7402    1.2583  -18.4193 O   0  0  0  0  0
   -7.6270    0.4337  -16.0974 O   0  0  0  0  0
   -9.4195    1.4241  -17.7260 O   0  0  0  0  0
   -8.2576   -1.0485  -18.1522 O   0  0  0  0  0
   -2.8424   -1.7863  -17.2226 O   0  0  0  0  0
   -2.7530   -8.0564  -17.8995 O   0  0  0  0  0
   -2.9142  -10.7055  -20.4092 O   0  0  0  0  0
   -3.0250  -11.4386  -23.2850 O   0  0  0  0  0
   -5.1547  -11.6696  -25.9944 O   0  0  0  0  0
   -4.2225  -15.3046  -27.8737 O   0  0  0  0  0
   -3.0784  -17.6090  -22.2696 O   0  0  0  0  0
   -4.2825  -18.6598  -25.4515 O   0  0  0  0  0
   -1.9035  -19.4889  -24.7863 O   0  0  0  0  0
   -3.3951  -15.0642  -26.4166 P   0  0  0  0  0
   -4.4877  -10.0992  -20.5623 P   0  0  0  0  0
   -3.7644   -2.5721  -18.4013 P   0  0  0  0  0
   -7.9995    0.5154  -17.5609 P   0  0  0  0  0
  1 21  1  0  0  0
  6 40  1  0  0  0
 11 48  1  0  0  0
 16 57  1  0  0  0
 22  2  1  0  0  0
 23  3  1  0  0  0
 23  1  1  0  0  0
 24  4  1  0  0  0
 25  5  1  0  0  0
 25 22  1  0  0  0
 26 21  1  0  0  0
 27  1  1  0  0  0
 27 28  1  0  0  0
 27 84  1  0  0  0
 28 29  1  0  0  0
 28 86  1  0  0  0
 29 30  1  0  0  0
 29 85  1  0  0  0
 30 31  1  0  0  0
 30 84  1  0  0  0
 31 62  1  0  0  0
 32 64  1  0  0  0
 32 33  1  0  0  0
 33 34  1  0  0  0
 33 82  1  0  0  0
 34 35  1  0  0  0
 34 81  1  0  0  0
 35 65  1  0  0  0
 36 67  1  0  0  0
 36 37  1  0  0  0
 37 38  1  0  0  0
 37 79  1  0  0  0
 38 68  1  0  0  0
 38 45  1  0  0  0
 39 68  1  0  0  0
 39  6  1  0  0  0
 39 36  1  0  0  0
 41  7  1  0  0  0
 42  8  1  0  0  0
 42  6  1  0  0  0
 43  9  1  0  0  0
 44 10  1  0  0  0
 44 41  1  0  0  0
 45 69  1  0  0  0
 46 71  1  0  0  0
 46 47  1  0  0  0
 47 11  1  0  0  0
 47 72  1  0  0  0
 49 12  1  0  0  0
 50 13  1  0  0  0
 50 11  1  0  0  0
 51 14  1  0  0  0
 52 15  1  0  0  0
 52 49  1  0  0  0
 53 72  1  0  0  0
 53 54  1  0  0  0
 53 55  1  0  0  0
 54 73  1  0  0  0
 54 46  1  0  0  0
 55 74  1  0  0  0
 56 81  1  0  0  0
 56 16  1  0  0  0
 56 32  1  0  0  0
 58 17  1  0  0  0
 59 18  1  0  0  0
 59 16  1  0  0  0
 60 19  1  0  0  0
 61 20  1  0  0  0
 61 58  1  0  0  0
 87 62  1  0  0  0
 87 64  1  0  0  0
 87 83  1  0  0  0
 88 65  1  0  0  0
 88 67  1  0  0  0
 88 80  1  0  0  0
 89 69  1  0  0  0
 89 71  1  0  0  0
 89 78  1  0  0  0
 90 74  1  0  0  0
 90 76  1  0  0  0
 90 77  1  0  0  0
 21  2  2  0  0  0
 22 23  2  0  0  0
 24  3  2  0  0  0
 25  4  2  0  0  0
 40  7  2  0  0  0
 41 42  2  0  0  0
 43  8  2  0  0  0
 44  9  2  0  0  0
 48 12  2  0  0  0
 49 50  2  0  0  0
 51 13  2  0  0  0
 52 14  2  0  0  0
 57 17  2  0  0  0
 58 59  2  0  0  0
 60 18  2  0  0  0
 61 19  2  0  0  0
 87 63  2  0  0  0
 88 66  2  0  0  0
 89 70  2  0  0  0
 90 75  2  0  0  0
M  END
> <rmsd>
0.826969683

$$$$
CHEMBL432281 PubChem-10350822


 67 71  0  0  0  0  0  0  0  0999 V2000
   -7.0090   -1.9857  -19.6325 C   0  0  0  0  0
   -8.2130   -2.6298  -20.2497 C   0  0  0  0  0
   -9.5672   -3.0987  -22.3440 C   0  0  0  0  0
   -9.4593   -4.5915  -22.4508 C   0  0  0  0  0
  -10.6197   -6.7914  -22.9545 C   0  0  0  0  0
   -9.9241   -7.1291  -24.2383 C   0  0  0  0  0
   -8.8539   -8.0384  -24.2525 C   0  0  0  0  0
   -8.2332   -8.3644  -25.4627 C   0  0  0  0  0
   -8.6740   -7.7885  -26.6683 C   0  0  0  0  0
   -9.7412   -6.8862  -26.6477 C   0  0  0  0  0
  -10.3667   -6.5612  -25.4405 C   0  0  0  0  0
   -7.0028   -9.0239  -28.0112 C   0  0  0  0  0
   -9.7791   -2.4636  -23.7198 C   0  0  0  0  0
   -8.5367   -2.5580  -24.5976 C   0  0  0  0  0
  -10.2002   -1.0081  -23.5788 C   0  0  0  0  0
   -7.3886   -0.9330  -18.5786 C   0  0  0  0  0
   -6.1986   -0.0143  -18.2572 C   0  0  0  0  0
   -7.2153    1.1164  -16.1998 C   0  0  0  0  0
   -7.7016    2.3866  -15.5626 C   0  0  0  0  0
  -10.2008    2.6596  -15.3238 C   0  0  0  0  0
  -11.4310    2.4586  -14.5074 C   0  0  0  0  0
  -11.5158    3.4959  -13.4299 C   0  0  0  0  0
  -12.1805    4.7219  -13.6316 C   0  0  0  0  0
  -12.2077    5.6794  -12.5878 C   0  0  0  0  0
  -11.5776    5.4078  -11.3708 C   0  0  0  0  0
  -10.9190    4.1929  -11.1798 C   0  0  0  0  0
  -10.8864    3.2437  -12.2039 C   0  0  0  0  0
  -12.8622    6.8994  -12.7746 C   0  0  0  0  0
  -13.4941    7.1769  -13.9909 C   0  0  0  0  0
  -13.4720    6.2374  -15.0252 C   0  0  0  0  0
  -12.8181    5.0169  -14.8484 C   0  0  0  0  0
   -6.6657    3.0643  -14.6433 C   0  0  0  0  0
   -5.3991    3.3889  -15.4167 C   0  0  0  0  0
   -6.3069    2.1797  -13.4585 C   0  0  0  0  0
   -7.2296    4.3705  -14.1163 C   0  0  0  0  0
   -5.0931   -0.7482  -17.4997 C   0  0  0  0  0
   -3.7639   -0.1197  -17.7429 C   0  0  0  0  0
   -2.7954   -0.8213  -18.4664 C   0  0  0  0  0
   -1.5429   -0.2485  -18.6985 C   0  0  0  0  0
   -1.2539    1.0250  -18.2016 C   0  0  0  0  0
   -2.2166    1.7247  -17.4692 C   0  0  0  0  0
   -3.4693    1.1519  -17.2383 C   0  0  0  0  0
   -5.1353   -3.3351  -20.0162 C   0  0  0  0  0
   -4.2674   -4.4227  -19.4931 C   0  0  0  0  0
   -2.9256   -4.1685  -19.2277 C   0  0  0  0  0
   -2.0908   -5.1842  -18.7413 C   0  0  0  0  0
   -2.6046   -6.4738  -18.5203 C   0  0  0  0  0
   -3.9684   -6.7371  -18.8023 C   0  0  0  0  0
   -4.7826   -5.7010  -19.2867 C   0  0  0  0  0
   -5.8554   -8.3400  -18.8930 C   0  0  0  0  0
   -2.0544   -8.7941  -17.7573 C   0  0  0  0  0
   -0.1342   -3.6657  -18.6682 C   0  0  0  0  0
   -9.0378   -3.2585  -19.5327 O   0  0  0  0  0
   -8.3425   -5.1660  -22.3250 O   0  0  0  0  0
   -8.0742   -8.0965  -27.8930 O   0  0  0  0  0
   -8.4039   -8.6231  -23.0718 O   0  0  0  0  0
   -7.3009    0.0221  -15.5775 O   0  0  0  0  0
  -10.2627    3.3218  -16.3954 O   0  0  0  0  0
   -8.4571   -0.1570  -19.0444 O   0  0  0  0  0
   -4.5026   -8.0137  -18.6050 O   0  0  0  0  0
   -1.7162   -7.4437  -18.0265 O   0  0  0  0  0
   -0.7409   -4.9369  -18.4705 O   0  0  0  0  0
   -8.4152   -2.5165  -21.6596 N   0  0  0  0  0
  -10.6342   -5.3509  -22.7391 N   0  0  0  0  0
   -6.6332    1.1645  -17.5078 N   0  0  0  0  0
   -8.9552    2.1444  -14.8573 N   0  0  0  0  0
   -6.1684   -3.0132  -19.0421 N   0  0  0  0  0
  1  2  1  0  0  0
  1 16  1  0  0  0
  1 67  1  0  0  0
  2 63  1  0  0  0
  3 63  1  0  0  0
  3  4  1  0  0  0
  3 13  1  0  0  0
  4 64  1  0  0  0
  5 64  1  0  0  0
  5  6  1  0  0  0
  7  8  1  0  0  0
  7 56  1  0  0  0
  9 10  1  0  0  0
  9 55  1  0  0  0
 11  6  1  0  0  0
 12 55  1  0  0  0
 13 14  1  0  0  0
 13 15  1  0  0  0
 16 17  1  0  0  0
 16 59  1  0  0  0
 17 65  1  0  0  0
 17 36  1  0  0  0
 19 18  1  0  0  0
 19 66  1  0  0  0
 19 32  1  0  0  0
 21 20  1  0  0  0
 21 22  1  0  0  0
 23 24  1  0  0  0
 24 28  1  0  0  0
 25 26  1  0  0  0
 27 22  1  0  0  0
 29 30  1  0  0  0
 31 23  1  0  0  0
 32 33  1  0  0  0
 32 34  1  0  0  0
 32 35  1  0  0  0
 36 37  1  0  0  0
 38 39  1  0  0  0
 40 41  1  0  0  0
 42 37  1  0  0  0
 43 67  1  0  0  0
 43 44  1  0  0  0
 45 46  1  0  0  0
 46 62  1  0  0  0
 47 48  1  0  0  0
 47 61  1  0  0  0
 48 60  1  0  0  0
 49 44  1  0  0  0
 50 60  1  0  0  0
 51 61  1  0  0  0
 52 62  1  0  0  0
 65 18  1  0  0  0
 66 20  1  0  0  0
  2 53  2  0  0  0
  4 54  2  0  0  0
  6  7  2  0  0  0
  8  9  2  0  0  0
 10 11  2  0  0  0
 18 57  2  0  0  0
 20 58  2  0  0  0
 22 23  2  0  0  0
 24 25  2  0  0  0
 26 27  2  0  0  0
 28 29  2  0  0  0
 30 31  2  0  0  0
 37 38  2  0  0  0
 39 40  2  0  0  0
 41 42  2  0  0  0
 44 45  2  0  0  0
 46 47  2  0  0  0
 48 49  2  0  0  0
M  END
> <rmsd>
0.843844831

$$$$
CHEMBL2153274 PubChem-71460325


 67 71  0  0  0  0  0  0  0  0999 V2000
    5.0966    3.1716  -19.8869 C   0  0  0  0  0
    3.1731    3.9821  -18.5120 C   0  0  0  0  0
    2.6654    5.0520  -17.7652 C   0  0  0  0  0
    1.3921    4.9876  -17.1961 C   0  0  0  0  0
    0.6022    3.8491  -17.3692 C   0  0  0  0  0
   -0.7515    3.7937  -16.7261 C   0  0  0  0  0
   -0.7100    3.0801  -15.3709 C   0  0  0  0  0
   -0.6852    1.5948  -15.5534 C   0  0  0  0  0
   -1.5014    0.9894  -16.6257 C   0  0  0  0  0
   -1.7827   -0.3898  -16.6831 C   0  0  0  0  0
   -2.5710   -0.8956  -17.7192 C   0  0  0  0  0
   -3.0845   -0.0432  -18.7068 C   0  0  0  0  0
   -4.2913   -1.8865  -19.8306 C   0  0  0  0  0
   -4.3636   -3.7175  -21.1354 C   0  0  0  0  0
   -3.9315   -4.2881  -22.4801 C   0  0  0  0  0
   -2.3285   -5.8084  -22.2421 C   0  0  0  0  0
   -0.3815   -6.1960  -23.3982 C   0  0  0  0  0
    0.0362   -4.7532  -23.6475 C   0  0  0  0  0
    0.2758   -6.7665  -22.1232 C   0  0  0  0  0
   -0.7149   -7.4909  -21.2036 C   0  0  0  0  0
   -2.0121   -6.6771  -21.0158 C   0  0  0  0  0
   -5.8162   -4.0851  -20.7836 C   0  0  0  0  0
   -6.1297   -3.5063  -19.3983 C   0  0  0  0  0
   -5.7280   -2.0309  -19.3135 C   0  0  0  0  0
   -2.8001    1.3229  -18.6521 C   0  0  0  0  0
   -2.0104    1.8421  -17.6235 C   0  0  0  0  0
    1.1034    2.7675  -18.1050 C   0  0  0  0  0
    2.3759    2.8239  -18.6794 C   0  0  0  0  0
    4.4585    4.1277  -19.0529 O   0  0  0  0  0
    0.0532    0.8929  -14.8141 O   0  0  0  0  0
   -1.2970   -1.2657  -15.7193 O   0  0  0  0  0
   -3.8715   -0.5303  -19.7542 O   0  0  0  0  0
   -4.2265   -2.3203  -21.1644 O   0  0  0  0  0
   -3.7115   -5.6659  -22.3775 O   0  0  0  0  0
   -1.7884   -6.3588  -23.4226 O   0  0  0  0  0
    1.4586   -7.5051  -22.3607 O   0  0  0  0  0
    2.2190   -9.8313  -23.2557 O   0  0  0  0  0
   -0.1751   -9.3596  -23.3341 O   0  0  0  0  0
    1.3710   -8.1572  -25.0411 O   0  0  0  0  0
   -0.1172   -7.7772  -19.9690 O   0  0  0  0  0
    0.5337  -10.2509  -20.5146 O   0  0  0  0  0
   -1.8161   -9.7891  -19.9629 O   0  0  0  0  0
   -0.0731   -9.7272  -18.0507 O   0  0  0  0  0
   -1.9332   -5.8510  -19.8869 O   0  0  0  0  0
   -2.3035   -7.2848  -17.7404 O   0  0  0  0  0
   -3.7066   -5.3066  -18.0649 O   0  0  0  0  0
   -4.2188   -7.4062  -19.4915 O   0  0  0  0  0
   -5.9670   -5.4744  -20.7440 O   0  0  0  0  0
   -8.5146   -5.3375  -21.3215 O   0  0  0  0  0
   -7.2784   -7.3477  -21.9703 O   0  0  0  0  0
   -6.8757   -5.1853  -23.3408 O   0  0  0  0  0
   -7.4885   -3.6517  -19.1050 O   0  0  0  0  0
   -8.9611   -4.6045  -17.1876 O   0  0  0  0  0
   -7.2255   -6.0574  -18.1189 O   0  0  0  0  0
   -6.4979   -4.1082  -16.5575 O   0  0  0  0  0
   -5.8114   -1.6005  -17.9841 O   0  0  0  0  0
   -7.3495   -0.0814  -16.5414 O   0  0  0  0  0
   -8.1412   -0.6666  -18.7817 O   0  0  0  0  0
   -6.2069    1.0642  -18.5712 O   0  0  0  0  0
   -1.7270    3.2148  -17.6017 O   0  0  0  0  0
    2.8244    1.7248  -19.4009 O   0  0  0  0  0
    1.1938   -8.7576  -23.4827 S   0  0  0  0  0
   -0.3878   -9.4182  -19.6699 S   0  0  0  0  0
   -3.0368   -6.4588  -18.7586 S   0  0  0  0  0
   -7.1983   -5.8541  -21.8326 S   0  0  0  0  0
   -7.5652   -4.6442  -17.7417 S   0  0  0  0  0
   -6.9230   -0.3288  -17.9618 S   0  0  0  0  0
  1 29  1  0  0  0
  2 29  1  0  0  0
  3  4  1  0  0  0
  5 27  1  0  0  0
  6  5  1  0  0  0
  6  7  1  0  0  0
  6 60  1  0  0  0
  7  8  1  0  0  0
  8  9  1  0  0  0
 10 31  1  0  0  0
 10 11  1  0  0  0
 12 32  1  0  0  0
 12 25  1  0  0  0
 13 32  1  0  0  0
 13 33  1  0  0  0
 14 33  1  0  0  0
 14 15  1  0  0  0
 14 22  1  0  0  0
 15 34  1  0  0  0
 16 34  1  0  0  0
 16 35  1  0  0  0
 17 35  1  0  0  0
 17 18  1  0  0  0
 17 19  1  0  0  0
 19 36  1  0  0  0
 19 20  1  0  0  0
 20 40  1  0  0  0
 20 21  1  0  0  0
 21 44  1  0  0  0
 21 16  1  0  0  0
 22 48  1  0  0  0
 22 23  1  0  0  0
 23 52  1  0  0  0
 23 24  1  0  0  0
 24 56  1  0  0  0
 24 13  1  0  0  0
 26 60  1  0  0  0
 26  9  1  0  0  0
 28 61  1  0  0  0
 28  2  1  0  0  0
 62 36  1  0  0  0
 62 39  1  0  0  0
 63 40  1  0  0  0
 63 43  1  0  0  0
 64 44  1  0  0  0
 64 47  1  0  0  0
 65 48  1  0  0  0
 65 51  1  0  0  0
 66 52  1  0  0  0
 66 55  1  0  0  0
 67 56  1  0  0  0
 67 59  1  0  0  0
  2  3  2  0  0  0
  4  5  2  0  0  0
  8 30  2  0  0  0
  9 10  2  0  0  0
 11 12  2  0  0  0
 25 26  2  0  0  0
 27 28  2  0  0  0
 62 37  2  0  0  0
 62 38  2  0  0  0
 63 41  2  0  0  0
 63 42  2  0  0  0
 64 45  2  0  0  0
 64 46  2  0  0  0
 65 49  2  0  0  0
 65 50  2  0  0  0
 66 53  2  0  0  0
 66 54  2  0  0  0
 67 57  2  0  0  0
 67 58  2  0  0  0
M  CHG  6  39  -1  43  -1  47  -1  51  -1  55  -1  59  -1
M  END
> <rmsd>
0.839702368

$$$$
CHEMBL3350905 PubChem-11205515


 78 83  0  0  0  0  0  0  0  0999 V2000
   -1.5248   -4.7121  -12.8536 C   0  0  0  0  0
   -2.3113   -5.4546  -13.9215 C   0  0  0  0  0
   -1.6825   -5.2476  -15.3091 C   0  0  0  0  0
   -1.8383   -3.8140  -15.7234 C   0  0  0  0  0
   -3.3082   -1.9649  -16.6321 C   0  0  0  0  0
   -4.7690   -1.7687  -16.9018 C   0  0  0  0  0
   -6.6063   -1.2692  -18.6517 C   0  0  0  0  0
   -7.0709   -2.6506  -19.1452 C   0  0  0  0  0
   -7.6890   -6.2704  -19.2666 C   0  0  0  0  0
   -6.7002   -5.9748  -20.3864 C   0  0  0  0  0
   -5.8041   -7.1539  -20.5367 C   0  0  0  0  0
   -5.3968   -9.4396  -21.5379 C   0  0  0  0  0
   -4.0627   -9.3084  -22.2207 C   0  0  0  0  0
   -2.9194  -10.5332  -20.3398 C   0  0  0  0  0
   -1.6885  -10.3743  -19.5136 C   0  0  0  0  0
   -0.5295  -10.7667  -17.3153 C   0  0  0  0  0
   -0.9681  -10.2971  -15.9627 C   0  0  0  0  0
   -0.4446   -7.7997  -16.2905 C   0  0  0  0  0
   -1.7966   -7.3321  -16.7527 C   0  0  0  0  0
    0.5221   -7.9707  -17.4479 C   0  0  0  0  0
    0.9786   -6.6145  -17.9493 C   0  0  0  0  0
    1.6470   -6.7317  -19.2989 C   0  0  0  0  0
    2.9739   -7.4470  -19.2187 C   0  0  0  0  0
    0.2220  -12.0882  -17.2042 C   0  0  0  0  0
    0.9771  -12.3960  -18.4581 C   0  0  0  0  0
    0.6287  -13.3475  -19.4197 C   0  0  0  0  0
    2.4906  -12.4748  -20.0508 C   0  0  0  0  0
    3.6528  -12.1619  -20.7535 C   0  0  0  0  0
    4.5017  -11.1857  -20.2014 C   0  0  0  0  0
    4.1841  -10.5599  -18.9710 C   0  0  0  0  0
    2.9984  -10.8912  -18.2849 C   0  0  0  0  0
    2.1707  -11.8506  -18.8706 C   0  0  0  0  0
   -3.1503  -11.9867  -20.7234 C   0  0  0  0  0
   -4.0184  -12.6802  -19.7273 C   0  0  0  0  0
   -3.6525  -13.9500  -19.2542 C   0  0  0  0  0
   -4.5262  -14.6611  -18.4217 C   0  0  0  0  0
   -5.7606  -14.1000  -18.0558 C   0  0  0  0  0
   -6.1161  -12.8293  -18.5070 C   0  0  0  0  0
   -5.2545  -12.1295  -19.3598 C   0  0  0  0  0
   -6.2826  -10.5598  -22.1078 C   0  0  0  0  0
   -6.5126  -10.4785  -23.5875 C   0  0  0  0  0
   -5.9856  -11.4740  -24.4136 C   0  0  0  0  0
   -6.1670  -11.4338  -25.7956 C   0  0  0  0  0
   -6.9074  -10.3922  -26.3695 C   0  0  0  0  0
   -7.4651   -9.3964  -25.5502 C   0  0  0  0  0
   -7.2661   -9.4375  -24.1641 C   0  0  0  0  0
   -7.5429   -0.5833  -17.6929 C   0  0  0  0  0
   -2.4019   -1.5465  -17.8026 C   0  0  0  0  0
   -2.2557   -0.0680  -17.8844 C   0  0  0  0  0
   -1.6727    0.6643  -16.8398 C   0  0  0  0  0
   -1.5333    2.0519  -16.9653 C   0  0  0  0  0
   -1.9830    2.7107  -18.1143 C   0  0  0  0  0
   -2.5668    1.9795  -19.1492 C   0  0  0  0  0
   -2.6833    0.5922  -19.0403 C   0  0  0  0  0
   -0.8944   -3.0065  -15.5242 O   0  0  0  0  0
   -5.5906   -2.0043  -15.9669 O   0  0  0  0  0
   -4.8196   -7.2944  -19.7553 O   0  0  0  0  0
   -4.0022   -8.8846  -23.4130 O   0  0  0  0  0
   -0.6973   -9.7245  -19.9384 O   0  0  0  0  0
   -1.6739  -11.0440  -15.2251 O   0  0  0  0  0
   -2.4673   -8.0485  -17.5445 O   0  0  0  0  0
   -7.1104    0.2557  -16.8556 O   0  0  0  0  0
   -8.9009   -0.8385  -17.7645 O   0  0  0  0  0
   -1.8571    4.0863  -18.2194 O   0  0  0  0  0
   -2.3176   -6.8137  -13.6053 O   0  0  0  0  0
   -3.0723   -3.3550  -16.2787 N   0  0  0  0  0
   -5.2247   -1.2924  -18.1792 N   0  0  0  0  0
   -6.1117   -8.1708  -21.4994 N   0  0  0  0  0
   -2.8670   -9.7277  -21.5546 N   0  0  0  0  0
   -1.6805  -10.9157  -18.1961 N   0  0  0  0  0
   -0.5723   -9.0107  -15.4798 N   0  0  0  0  0
   -2.3467   -6.1030  -16.2800 N   0  0  0  0  0
    3.9488   -6.6327  -18.5119 N   0  0  0  0  0
    1.5654  -13.3930  -20.3982 N   0  0  0  0  0
   -6.6495  -14.8232  -17.2089 N   0  0  0  0  0
   -7.4073   -5.7037  -21.6314 N   0  0  0  0  0
   -7.3906   -3.8201  -17.7927 S   0  0  0  0  0
   -8.8252   -4.8892  -18.9454 S   0  0  0  0  0
  2  1  1  0  0  0
  2  3  1  0  0  0
  2 65  1  0  0  0
  3  4  1  0  0  0
  3 72  1  0  0  0
  4 66  1  0  0  0
  5 66  1  0  0  0
  5  6  1  0  0  0
  5 48  1  0  0  0
  6 67  1  0  0  0
  7 67  1  0  0  0
  7  8  1  0  0  0
  7 47  1  0  0  0
  8 77  1  0  0  0
  9 78  1  0  0  0
  9 10  1  0  0  0
 10 11  1  0  0  0
 10 76  1  0  0  0
 11 68  1  0  0  0
 12 68  1  0  0  0
 12 13  1  0  0  0
 12 40  1  0  0  0
 13 69  1  0  0  0
 14 69  1  0  0  0
 14 15  1  0  0  0
 14 33  1  0  0  0
 15 70  1  0  0  0
 16 70  1  0  0  0
 16 17  1  0  0  0
 16 24  1  0  0  0
 17 71  1  0  0  0
 18 71  1  0  0  0
 18 19  1  0  0  0
 18 20  1  0  0  0
 19 72  1  0  0  0
 20 21  1  0  0  0
 21 22  1  0  0  0
 22 23  1  0  0  0
 23 73  1  0  0  0
 24 25  1  0  0  0
 26 74  1  0  0  0
 28 29  1  0  0  0
 30 31  1  0  0  0
 32 25  1  0  0  0
 32 27  1  0  0  0
 33 34  1  0  0  0
 35 36  1  0  0  0
 37 38  1  0  0  0
 37 75  1  0  0  0
 39 34  1  0  0  0
 40 41  1  0  0  0
 42 43  1  0  0  0
 44 45  1  0  0  0
 46 41  1  0  0  0
 47 63  1  0  0  0
 48 49  1  0  0  0
 50 51  1  0  0  0
 52 53  1  0  0  0
 52 64  1  0  0  0
 54 49  1  0  0  0
 74 27  1  0  0  0
 77 78  1  0  0  0
  4 55  2  0  0  0
  6 56  2  0  0  0
 11 57  2  0  0  0
 13 58  2  0  0  0
 15 59  2  0  0  0
 17 60  2  0  0  0
 19 61  2  0  0  0
 25 26  2  0  0  0
 27 28  2  0  0  0
 29 30  2  0  0  0
 31 32  2  0  0  0
 34 35  2  0  0  0
 36 37  2  0  0  0
 38 39  2  0  0  0
 41 42  2  0  0  0
 43 44  2  0  0  0
 45 46  2  0  0  0
 47 62  2  0  0  0
 49 50  2  0  0  0
 51 52  2  0  0  0
 53 54  2  0  0  0
M  END
> <rmsd>
0.626906395

$$$$
CHEMBL96843 PubChem-11755388


 30 32  0  0  0  0  0  0  0  0999 V2000
   -2.8815   -9.9061  -17.9218 O   0  0  0  0  0
   -4.5425   -8.5008  -16.4906 O   0  0  0  0  0
   -2.4507   -7.3376  -17.8749 O   0  0  0  0  0
   -4.5965   -8.4709  -19.2723 O   0  0  0  0  0
   -4.0691   -5.9392  -19.7306 O   0  0  0  0  0
   -5.8606   -6.4151  -17.8716 O   0  0  0  0  0
   -6.3829   -6.8422  -20.5800 O   0  0  0  0  0
   -8.1171   -5.3689  -19.2617 O   0  0  0  0  0
   -8.1377   -5.1550  -21.8616 O   0  0  0  0  0
   -6.0974   -4.0676  -20.3483 O   0  0  0  0  0
   -5.2371   -1.6850  -19.0331 O   0  0  0  0  0
   -6.9977    0.4696  -16.9927 O   0  0  0  0  0
   -8.5586   -1.2836  -18.0453 O   0  0  0  0  0
   -3.6021   -8.5782  -17.8949 P   0  0  0  0  0
   -5.1952   -6.8795  -19.3599 P   0  0  0  0  0
   -7.2011   -5.3535  -20.4665 P   0  0  0  0  0
   -6.8739   -2.9085  -20.2831 C   0  0  0  0  0
   -6.5603   -2.1513  -19.0054 C   0  0  0  0  0
   -5.2318   -0.5327  -18.2301 C   0  0  0  0  0
   -4.0806    0.9527  -19.9263 C   0  0  0  0  0
   -2.4482    1.6949  -18.7904 C   0  0  0  0  0
   -1.3135    2.3180  -18.2948 C   0  0  0  0  0
   -1.7268    1.2254  -16.2089 C   0  0  0  0  0
   -3.1726    0.8743  -18.0007 C   0  0  0  0  0
   -6.6005    0.1133  -18.2845 C   0  0  0  0  0
   -7.4815   -0.9623  -18.8760 C   0  0  0  0  0
   -4.2087    0.3954  -18.6933 N   0  0  0  0  0
   -2.9924    1.7700  -20.0185 N   0  0  0  0  0
   -0.9757    2.0639  -16.9948 N   0  0  0  0  0
   -2.8436    0.6173  -16.7120 N   0  0  0  0  0
 14  2  1  0  0  0
 14  3  1  0  0  0
 14  4  1  0  0  0
 15  4  1  0  0  0
 15  6  1  0  0  0
 15  7  1  0  0  0
 16  7  1  0  0  0
 16  9  1  0  0  0
 16 10  1  0  0  0
 17 10  1  0  0  0
 18 17  1  0  0  0
 18 11  1  0  0  0
 19 11  1  0  0  0
 19 27  1  0  0  0
 19 25  1  0  0  0
 21 28  1  0  0  0
 22 29  1  0  0  0
 23 30  1  0  0  0
 24 27  1  0  0  0
 24 21  1  0  0  0
 25 12  1  0  0  0
 25 26  1  0  0  0
 26 13  1  0  0  0
 26 18  1  0  0  0
 27 20  1  0  0  0
 14  1  2  0  0  0
 15  5  2  0  0  0
 16  8  2  0  0  0
 20 28  2  0  0  0
 21 22  2  0  0  0
 23 29  2  0  0  0
 24 30  2  0  0  0
M  END
> <rmsd>
0.766963303

$$$$
CHEMBL5085047


 41 44  0  0  0  0  0  0  0  0999 V2000
   -2.5466   -4.4574  -19.7442 N   0  0  0  0  0
   -3.7984   -2.9074  -18.5091 N   0  0  0  0  0
   -5.1848   -7.7345  -20.4455 N   0  0  0  0  0
   -5.0910   -8.7410  -19.5848 N   0  0  0  0  0
   -3.8191   -8.9753  -19.2939 N   0  0  0  0  0
   -3.0711   -8.1216  -19.9674 N   0  0  0  0  0
   -1.5116   -7.6189  -17.5015 N   0  0  0  0  0
   -6.9253   -4.7657  -21.7164 N   0  0  0  0  0
   -2.6276   -3.5437  -18.7494 C   0  0  0  0  0
   -4.9150   -3.1317  -19.2531 C   0  0  0  0  0
   -4.8549   -4.1096  -20.2813 C   0  0  0  0  0
   -3.6286   -4.7695  -20.5005 C   0  0  0  0  0
   -3.9151   -7.3525  -20.6721 C   0  0  0  0  0
   -1.6182   -8.0545  -19.9055 C   0  0  0  0  0
   -1.1689   -7.0946  -18.8130 C   0  0  0  0  0
   -2.5395   -6.7502  -16.9559 C   0  0  0  0  0
   -0.3392   -7.4433  -16.6651 C   0  0  0  0  0
   -6.0064   -4.4712  -21.0774 C   0  0  0  0  0
   -6.1076   -2.2862  -18.9560 C   0  0  0  0  0
   -7.1780   -2.1541  -19.8461 C   0  0  0  0  0
   -8.2611   -1.3029  -19.5773 C   0  0  0  0  0
   -8.2662   -0.5433  -18.3811 C   0  0  0  0  0
   -7.1901   -0.6617  -17.4875 C   0  0  0  0  0
   -6.1264   -1.5250  -17.7821 C   0  0  0  0  0
   -6.1410    0.0479  -15.3587 C   0  0  0  0  0
  -10.4492    0.6068  -18.8237 C   0  0  0  0  0
   -9.3680   -1.9522  -21.6993 C   0  0  0  0  0
   -0.7754   -1.6558  -18.7702 C   0  0  0  0  0
   -1.7963   -0.5812  -18.5800 C   0  0  0  0  0
   -2.5894   -0.1853  -19.6619 C   0  0  0  0  0
   -3.5958    0.7675  -19.4818 C   0  0  0  0  0
   -3.8145    1.3354  -18.2160 C   0  0  0  0  0
   -3.0047    0.9514  -17.1418 C   0  0  0  0  0
   -1.9996   -0.0038  -17.3208 C   0  0  0  0  0
   -5.7246    2.6845  -19.0204 C   0  0  0  0  0
   -3.4414   -6.0222  -21.7765 S   0  0  0  0  0
   -1.1809   -3.1363  -17.7775 S   0  0  0  0  0
   -7.1951    0.0962  -16.3109 O   0  0  0  0  0
   -9.3018    0.3396  -18.0308 O   0  0  0  0  0
   -9.3197   -1.2092  -20.4884 O   0  0  0  0  0
   -4.8257    2.2752  -17.9988 O   0  0  0  0  0
  3  4  1  0  0  0
  6  5  1  0  0  0
  6 13  1  0  0  0
  9  2  1  0  0  0
  9 37  1  0  0  0
 10 11  1  0  0  0
 10 19  1  0  0  0
 11 18  1  0  0  0
 12 36  1  0  0  0
 12  1  1  0  0  0
 13 36  1  0  0  0
 14  6  1  0  0  0
 14 15  1  0  0  0
 15  7  1  0  0  0
 16  7  1  0  0  0
 17  7  1  0  0  0
 20 21  1  0  0  0
 21 40  1  0  0  0
 22 23  1  0  0  0
 22 39  1  0  0  0
 23 38  1  0  0  0
 24 19  1  0  0  0
 25 38  1  0  0  0
 26 39  1  0  0  0
 27 40  1  0  0  0
 28 37  1  0  0  0
 28 29  1  0  0  0
 30 31  1  0  0  0
 32 33  1  0  0  0
 32 41  1  0  0  0
 34 29  1  0  0  0
 35 41  1  0  0  0
  4  5  2  0  0  0
  9  1  2  0  0  0
 10  2  2  0  0  0
 11 12  2  0  0  0
 13  3  2  0  0  0
 19 20  2  0  0  0
 21 22  2  0  0  0
 23 24  2  0  0  0
 29 30  2  0  0  0
 31 32  2  0  0  0
 33 34  2  0  0  0
 18  8  3  0  0  0
M  END
> <rmsd>
0.778290093

$$$$
CHEMBL4435942 PubChem-155511684


 79 84  0  0  0  0  0  0  0  0999 V2000
    1.8552   -0.5532  -15.0011 O   0  0  0  0  0
    1.6855   -2.2958  -16.7227 O   0  0  0  0  0
    0.7481    0.0837  -17.2949 O   0  0  0  0  0
    2.9658    4.3185  -16.4883 O   0  0  0  0  0
    3.0749    6.4664  -17.9995 O   0  0  0  0  0
    1.9997    6.6641  -15.7972 O   0  0  0  0  0
    4.5876    6.4795  -15.8830 O   0  0  0  0  0
   -2.7157   -0.7024  -20.8733 O   0  0  0  0  0
   -2.6705    1.4474  -17.4850 O   0  0  0  0  0
   -7.1080    0.2438  -16.2835 O   0  0  0  0  0
   -8.4307   -2.0005  -16.6659 O   0  0  0  0  0
   -9.5262   -0.2299  -15.3789 O   0  0  0  0  0
   -9.3209    0.0852  -17.9474 O   0  0  0  0  0
   -5.1525   -1.4950  -20.3975 O   0  0  0  0  0
   -7.2580   -5.0220  -21.4302 O   0  0  0  0  0
   -7.6951   -5.0808  -23.9999 O   0  0  0  0  0
   -7.2917   -6.0305  -26.5105 O   0  0  0  0  0
   -9.7322   -6.6084  -25.7352 O   0  0  0  0  0
   -9.3589   -6.1188  -28.1186 O   0  0  0  0  0
   -8.5419   -8.4100  -27.1857 O   0  0  0  0  0
   -4.8740  -10.1924  -25.9203 O   0  0  0  0  0
   -5.9549  -12.4008  -26.8474 O   0  0  0  0  0
   -3.5120  -12.3411  -26.6173 O   0  0  0  0  0
   -4.9453  -12.5361  -24.4566 O   0  0  0  0  0
   -4.2557   -9.5587  -30.7228 O   0  0  0  0  0
   -3.5284  -11.3827  -32.4563 O   0  0  0  0  0
   -4.2917  -12.1618  -30.2627 O   0  0  0  0  0
   -1.9483  -11.0470  -30.4269 O   0  0  0  0  0
   -4.8306   -7.8390  -24.5263 O   0  0  0  0  0
   -3.6986   -7.9824  -19.9137 O   0  0  0  0  0
   -5.2825   -8.3690  -17.8564 O   0  0  0  0  0
   -4.0806   -6.2218  -17.9784 O   0  0  0  0  0
   -2.7346   -8.3523  -17.3475 O   0  0  0  0  0
   -0.4353    0.6709  -20.2483 O   0  0  0  0  0
   -1.3161    1.2316  -22.6629 O   0  0  0  0  0
    1.0706    1.5402  -22.2026 O   0  0  0  0  0
   -0.5993    3.2607  -21.2071 O   0  0  0  0  0
    3.4678   -0.4227  -17.0408 O   0  0  0  0  0
    1.9365   -0.8322  -16.4769 S   0  0  0  0  0
    3.1189    6.0212  -16.5630 S   0  0  0  0  0
   -8.6216   -0.5151  -16.5407 S   0  0  0  0  0
   -8.7787   -6.7704  -26.8895 S   0  0  0  0  0
   -4.8126  -11.8996  -26.0048 S   0  0  0  0  0
   -3.5320  -11.0859  -30.9828 S   0  0  0  0  0
   -3.9937   -7.7025  -18.2500 S   0  0  0  0  0
   -0.3131    1.6606  -21.6310 S   0  0  0  0  0
    0.7444    1.4832  -17.3360 C   0  0  0  0  0
   -0.3914    2.1622  -17.8117 C   0  0  0  0  0
   -0.4054    3.5618  -17.8484 C   0  0  0  0  0
    0.7065    4.2896  -17.4229 C   0  0  0  0  0
    1.8413    3.6228  -16.9422 C   0  0  0  0  0
    1.8521    2.2266  -16.9007 C   0  0  0  0  0
   -1.5838    1.4246  -18.2498 C   0  0  0  0  0
   -1.5769    0.6949  -19.4471 C   0  0  0  0  0
   -2.7231   -0.0241  -19.8097 C   0  0  0  0  0
   -3.8595    0.0085  -18.9698 C   0  0  0  0  0
   -5.0535   -0.6970  -19.2500 C   0  0  0  0  0
   -6.1338   -0.6057  -18.3560 C   0  0  0  0  0
   -6.0465    0.1622  -17.1903 C   0  0  0  0  0
   -4.8681    0.8531  -16.9144 C   0  0  0  0  0
   -3.7798    0.7817  -17.7860 C   0  0  0  0  0
   -6.2806   -2.3130  -20.6817 C   0  0  0  0  0
   -6.2848   -3.5334  -19.7784 C   0  0  0  0  0
   -7.4488   -4.4406  -20.1399 C   0  0  0  0  0
   -6.2738   -5.9830  -21.7141 C   0  0  0  0  0
   -6.0535   -6.4252  -23.0434 C   0  0  0  0  0
   -6.7953   -5.9532  -24.1453 C   0  0  0  0  0
   -6.5365   -6.4629  -25.4229 C   0  0  0  0  0
   -5.5177   -7.4226  -25.5876 C   0  0  0  0  0
   -5.1902   -7.9989  -26.9151 C   0  0  0  0  0
   -5.2052   -7.1860  -28.0623 C   0  0  0  0  0
   -4.8956   -7.7120  -29.3187 C   0  0  0  0  0
   -4.5544   -9.0583  -29.4525 C   0  0  0  0  0
   -4.5339   -9.8757  -28.3142 C   0  0  0  0  0
   -4.8543   -9.3618  -27.0467 C   0  0  0  0  0
   -5.0511   -7.3923  -23.2943 C   0  0  0  0  0
   -4.2833   -7.8934  -22.2419 C   0  0  0  0  0
   -4.4980   -7.4626  -20.9339 C   0  0  0  0  0
   -5.4936   -6.5150  -20.6786 C   0  0  0  0  0
 39  3  1  0  0  0
 39 38  1  0  0  0
 40  4  1  0  0  0
 40  7  1  0  0  0
 41 10  1  0  0  0
 41 13  1  0  0  0
 42 17  1  0  0  0
 42 20  1  0  0  0
 43 21  1  0  0  0
 43 24  1  0  0  0
 44 25  1  0  0  0
 44 28  1  0  0  0
 45 30  1  0  0  0
 45 33  1  0  0  0
 46 34  1  0  0  0
 46 37  1  0  0  0
 47  3  1  0  0  0
 48 49  1  0  0  0
 48 53  1  0  0  0
 50 51  1  0  0  0
 51  4  1  0  0  0
 52 47  1  0  0  0
 53  9  1  0  0  0
 54 55  1  0  0  0
 54 34  1  0  0  0
 55 56  1  0  0  0
 57 58  1  0  0  0
 57 14  1  0  0  0
 59 60  1  0  0  0
 59 10  1  0  0  0
 61  9  1  0  0  0
 61 56  1  0  0  0
 62 14  1  0  0  0
 62 63  1  0  0  0
 63 64  1  0  0  0
 64 15  1  0  0  0
 65 15  1  0  0  0
 66 67  1  0  0  0
 67 68  1  0  0  0
 68 17  1  0  0  0
 69 70  1  0  0  0
 69 29  1  0  0  0
 71 72  1  0  0  0
 73 74  1  0  0  0
 73 25  1  0  0  0
 75 21  1  0  0  0
 75 70  1  0  0  0
 76 29  1  0  0  0
 76 66  1  0  0  0
 77 78  1  0  0  0
 78 30  1  0  0  0
 79 65  1  0  0  0
 39  1  2  0  0  0
 39  2  2  0  0  0
 40  5  2  0  0  0
 40  6  2  0  0  0
 41 11  2  0  0  0
 41 12  2  0  0  0
 42 18  2  0  0  0
 42 19  2  0  0  0
 43 22  2  0  0  0
 43 23  2  0  0  0
 44 26  2  0  0  0
 44 27  2  0  0  0
 45 31  2  0  0  0
 45 32  2  0  0  0
 46 35  2  0  0  0
 46 36  2  0  0  0
 47 48  2  0  0  0
 49 50  2  0  0  0
 51 52  2  0  0  0
 53 54  2  0  0  0
 55  8  2  0  0  0
 56 57  2  0  0  0
 58 59  2  0  0  0
 60 61  2  0  0  0
 65 66  2  0  0  0
 67 16  2  0  0  0
 68 69  2  0  0  0
 70 71  2  0  0  0
 72 73  2  0  0  0
 74 75  2  0  0  0
 76 77  2  0  0  0
 78 79  2  0  0  0
M  CHG  8   7  -1  13  -1  20  -1  24  -1  28  -1  33  -1  37  -1  38  -1
M  END
> <rmsd>
0.71445787

$$$$
CHEMBL2057589 PubChem-70690507


 92103  0  0  0  0  0  0  0  0999 V2000
   -4.2892  -16.9175  -15.4732 P   0  0  0  0  0
   -7.8536  -13.7931  -18.9783 P   0  0  0  0  0
   -6.1139   -4.8283  -20.9783 P   0  0  0  0  0
   -6.8736    2.1065  -16.0729 P   0  0  0  0  0
   -2.8256  -16.5400  -15.4782 O   0  0  0  0  0
   -5.0322  -16.2993  -16.8605 O   0  0  0  0  0
   -4.4286  -18.6030  -15.4506 O   0  0  0  0  0
   -6.4036  -16.6579  -13.9181 O   0  0  0  0  0
   -8.7758  -17.3368  -16.5213 O   0  0  0  0  0
   -7.7289  -14.1025  -17.3119 O   0  0  0  0  0
   -6.8907  -14.6785  -19.7348 O   0  0  0  0  0
   -8.0228  -11.6085  -20.4385 O   0  0  0  0  0
   -8.8361   -7.7667  -21.9341 O   0  0  0  0  0
   -5.9838   -6.5063  -20.7553 O   0  0  0  0  0
   -4.9285   -4.3435  -21.7790 O   0  0  0  0  0
   -6.1102   -4.0812  -19.4583 O   0  0  0  0  0
   -8.5315   -0.7520  -18.1906 O   0  0  0  0  0
   -7.0711    0.4566  -16.4304 O   0  0  0  0  0
   -5.4192    2.3863  -15.7629 O   0  0  0  0  0
   -7.1636    4.4834  -17.1789 O   0  0  0  0  0
   -3.1567    5.3033  -18.1126 O   0  0  0  0  0
   -4.6371    5.1354  -14.9970 O   0  0  0  0  0
   -5.9025    6.9669  -17.1426 O   0  0  0  0  0
   -7.8137    2.4922  -14.7217 O   0  0  0  0  0
   -5.1648   -1.7705  -18.0294 O   0  0  0  0  0
   -7.5389   -4.4669  -21.8222 O   0  0  0  0  0
   -7.3644   -8.9145  -19.0374 O   0  0  0  0  0
   -9.4256  -14.0558  -19.5471 O   0  0  0  0  0
   -9.2557  -14.6067  -14.7238 O   0  0  0  0  0
   -5.0803  -16.2242  -13.9901 C   0  0  0  0  0
   -7.1611  -15.4900  -14.0034 C   0  0  0  0  0
   -8.4541  -15.7631  -14.7566 C   0  0  0  0  0
   -8.1450  -16.1356  -16.1992 C   0  0  0  0  0
   -8.7360  -15.0234  -17.0037 C   0  0  0  0  0
   -7.4186  -12.0579  -19.2629 C   0  0  0  0  0
   -7.2836  -10.4873  -20.8305 C   0  0  0  0  0
   -7.9282   -9.2176  -20.2906 C   0  0  0  0  0
   -7.6634   -8.0813  -21.2491 C   0  0  0  0  0
   -7.2634   -6.9310  -20.3790 C   0  0  0  0  0
   -6.5775   -2.7841  -19.6701 C   0  0  0  0  0
   -6.5076   -1.9988  -18.3761 C   0  0  0  0  0
   -7.1843   -0.6684  -18.5571 C   0  0  0  0  0
   -6.4057    0.2462  -17.6452 C   0  0  0  0  0
   -7.4069    3.1405  -17.4713 C   0  0  0  0  0
   -6.5825    5.0025  -18.3438 C   0  0  0  0  0
   -5.4415    5.9449  -17.9904 C   0  0  0  0  0
   -4.3019    5.1944  -17.3272 C   0  0  0  0  0
   -4.0925    5.9090  -16.0261 C   0  0  0  0  0
   -4.8741    7.1960  -16.2117 C   0  0  0  0  0
   -6.7182    7.8417  -14.5918 C   0  0  0  0  0
   -5.5991    8.5369  -12.9292 C   0  0  0  0  0
   -5.1234    9.0242  -11.7205 C   0  0  0  0  0
   -2.9096    8.7075  -12.5461 C   0  0  0  0  0
   -4.7319    8.1507  -13.8888 C   0  0  0  0  0
   -5.1165   -0.5136  -17.3916 C   0  0  0  0  0
   -2.9464    0.7307  -17.1534 C   0  0  0  0  0
   -2.5542    1.3309  -19.1510 C   0  0  0  0  0
   -2.0707    1.8369  -20.3478 C   0  0  0  0  0
   -3.9671    0.8878  -21.4444 C   0  0  0  0  0
   -3.7095    0.6359  -19.1393 C   0  0  0  0  0
   -7.3064   -7.5141  -18.9682 C   0  0  0  0  0
   -6.2579   -6.2493  -17.0635 C   0  0  0  0  0
   -4.2348   -6.8883  -17.1597 C   0  0  0  0  0
   -2.8868   -7.1657  -16.9760 C   0  0  0  0  0
   -3.0093   -8.6461  -18.8480 C   0  0  0  0  0
   -4.9133   -7.4889  -18.1620 C   0  0  0  0  0
   -9.7349  -14.4258  -16.0295 C   0  0  0  0  0
   -9.2490  -11.9355  -15.9298 C   0  0  0  0  0
  -10.7901  -11.1646  -17.1703 C   0  0  0  0  0
  -11.6499  -10.4170  -17.9635 C   0  0  0  0  0
  -12.7804  -12.4428  -18.5248 C   0  0  0  0  0
  -10.9513  -12.5017  -17.0763 C   0  0  0  0  0
   -5.4127    7.7021  -14.9477 N   0  0  0  0  0
   -6.8686    8.3533  -13.3368 N   0  0  0  0  0
   -6.0046    9.4356  -10.6847 N   0  0  0  0  0
   -3.7704    9.0990  -11.5506 N   0  0  0  0  0
   -3.3883    8.2238  -13.7328 N   0  0  0  0  0
   -3.9791    0.2495  -17.8884 N   0  0  0  0  0
   -2.0388    1.4102  -17.9094 N   0  0  0  0  0
   -0.8508    2.5653  -20.4007 N   0  0  0  0  0
   -2.7953    1.5975  -21.4875 N   0  0  0  0  0
   -4.4395    0.3991  -20.2573 N   0  0  0  0  0
   -6.1919   -7.0918  -18.1256 N   0  0  0  0  0
   -5.0548   -6.0959  -16.4423 N   0  0  0  0  0
   -2.1383   -6.5658  -15.9225 N   0  0  0  0  0
   -2.2981   -8.0469  -17.8385 N   0  0  0  0  0
   -4.3368   -8.3711  -19.0173 N   0  0  0  0  0
   -9.9930  -13.0119  -16.2999 N   0  0  0  0  0
   -9.7223  -10.7675  -16.4530 N   0  0  0  0  0
  -11.5007   -9.0076  -18.0990 N   0  0  0  0  0
  -12.6435  -11.0801  -18.6292 N   0  0  0  0  0
  -11.9236  -13.1697  -17.7429 N   0  0  0  0  0
  1  6  1  0  0  0
  1  7  1  0  0  0
  1 30  1  0  0  0
  2 10  1  0  0  0
  2 35  1  0  0  0
  2 28  1  0  0  0
  3 14  1  0  0  0
  3 16  1  0  0  0
  3 26  1  0  0  0
  4 18  1  0  0  0
  4 44  1  0  0  0
  4 24  1  0  0  0
 30  8  1  0  0  0
 31  8  1  0  0  0
 32 31  1  0  0  0
 32 33  1  0  0  0
 32 29  1  0  0  0
 33  9  1  0  0  0
 33 34  1  0  0  0
 34 10  1  0  0  0
 34 67  1  0  0  0
 35 12  1  0  0  0
 36 12  1  0  0  0
 37 36  1  0  0  0
 37 38  1  0  0  0
 37 27  1  0  0  0
 38 13  1  0  0  0
 38 39  1  0  0  0
 39 14  1  0  0  0
 39 61  1  0  0  0
 40 16  1  0  0  0
 41 40  1  0  0  0
 41 42  1  0  0  0
 41 25  1  0  0  0
 42 17  1  0  0  0
 42 43  1  0  0  0
 43 18  1  0  0  0
 43 55  1  0  0  0
 44 20  1  0  0  0
 45 20  1  0  0  0
 46 45  1  0  0  0
 46 47  1  0  0  0
 46 23  1  0  0  0
 47 21  1  0  0  0
 47 48  1  0  0  0
 48 22  1  0  0  0
 48 49  1  0  0  0
 49 23  1  0  0  0
 49 73  1  0  0  0
 51 74  1  0  0  0
 52 75  1  0  0  0
 52 76  1  0  0  0
 53 77  1  0  0  0
 54 73  1  0  0  0
 54 51  1  0  0  0
 55 25  1  0  0  0
 55 78  1  0  0  0
 57 79  1  0  0  0
 58 80  1  0  0  0
 58 81  1  0  0  0
 59 82  1  0  0  0
 60 78  1  0  0  0
 60 57  1  0  0  0
 61 27  1  0  0  0
 61 83  1  0  0  0
 63 84  1  0  0  0
 64 85  1  0  0  0
 64 86  1  0  0  0
 65 87  1  0  0  0
 66 83  1  0  0  0
 66 63  1  0  0  0
 67 29  1  0  0  0
 67 88  1  0  0  0
 69 89  1  0  0  0
 70 90  1  0  0  0
 70 91  1  0  0  0
 71 92  1  0  0  0
 72 88  1  0  0  0
 72 69  1  0  0  0
 73 50  1  0  0  0
 78 56  1  0  0  0
 83 62  1  0  0  0
 88 68  1  0  0  0
  1  5  2  0  0  0
  2 11  2  0  0  0
  3 15  2  0  0  0
  4 19  2  0  0  0
 50 74  2  0  0  0
 51 52  2  0  0  0
 53 76  2  0  0  0
 54 77  2  0  0  0
 56 79  2  0  0  0
 57 58  2  0  0  0
 59 81  2  0  0  0
 60 82  2  0  0  0
 62 84  2  0  0  0
 63 64  2  0  0  0
 65 86  2  0  0  0
 66 87  2  0  0  0
 68 89  2  0  0  0
 69 70  2  0  0  0
 71 91  2  0  0  0
 72 92  2  0  0  0
M  END
> <rmsd>
0.618996263

$$$$
CHEMBL2028999


 49 54  0  0  0  0  0  0  0  0999 V2000
   -2.5397   -7.4628  -17.6808 O   0  0  0  0  0
   -3.0085  -10.0133  -17.7509 O   0  0  0  0  0
   -4.6336   -8.5844  -16.2663 O   0  0  0  0  0
   -6.5086  -11.3123  -14.8485 O   0  0  0  0  0
   -4.2908  -12.0349  -12.3794 O   0  0  0  0  0
   -3.3850  -10.0976  -13.8167 O   0  0  0  0  0
   -4.7063   -8.5284  -19.0758 O   0  0  0  0  0
   -4.6496   -5.9329  -18.4897 O   0  0  0  0  0
   -6.0961   -6.7048  -20.5813 O   0  0  0  0  0
   -5.1056   -4.2793  -20.7855 O   0  0  0  0  0
   -7.2935   -4.7622  -22.1229 O   0  0  0  0  0
   -7.3243   -4.4969  -19.3743 O   0  0  0  0  0
   -5.8114   -2.5416  -17.9512 O   0  0  0  0  0
   -8.7833   -0.6403  -18.0186 O   0  0  0  0  0
   -6.9273   -0.1434  -16.2388 O   0  0  0  0  0
   -3.7174   -8.6781  -17.6935 P   0  0  0  0  0
   -5.5458   -7.0430  -19.0010 P   0  0  0  0  0
   -6.4144   -5.0351  -20.7033 P   0  0  0  0  0
   -5.4520   -9.7178  -16.2708 C   0  0  0  0  0
   -5.5078  -10.3294  -14.8824 C   0  0  0  0  0
   -4.1882  -10.9807  -14.5434 C   0  0  0  0  0
   -4.5800  -12.1935  -13.7378 C   0  0  0  0  0
   -6.0829  -12.2792  -13.9193 C   0  0  0  0  0
   -7.2547  -14.4956  -13.7175 C   0  0  0  0  0
   -6.7268  -15.4478  -15.5414 C   0  0  0  0  0
   -6.1483  -14.2288  -15.5188 C   0  0  0  0  0
   -5.1878  -14.5760  -17.6152 C   0  0  0  0  0
   -6.5400  -16.2808  -16.6348 C   0  0  0  0  0
   -7.4914   -3.1237  -19.5617 C   0  0  0  0  0
   -7.1753   -2.3904  -18.2710 C   0  0  0  0  0
   -5.3212   -1.2740  -17.5638 C   0  0  0  0  0
   -3.4674    0.2305  -18.3477 C   0  0  0  0  0
   -2.5272    2.1469  -17.4093 C   0  0  0  0  0
   -1.6998    1.3214  -19.4896 C   0  0  0  0  0
   -2.6309    0.2960  -19.4056 C   0  0  0  0  0
   -3.8807   -1.4021  -19.6501 C   0  0  0  0  0
   -6.4557   -0.2695  -17.5485 C   0  0  0  0  0
   -7.4783   -0.9241  -18.4295 C   0  0  0  0  0
   -6.4658  -13.6096  -14.3757 N   0  0  0  0  0
   -7.4366  -15.6530  -14.4162 N   0  0  0  0  0
   -5.3778  -13.7623  -16.5324 N   0  0  0  0  0
   -5.7643  -15.8208  -17.6614 N   0  0  0  0  0
   -7.1352  -17.5727  -16.6949 N   0  0  0  0  0
   -4.2702   -0.8310  -18.4792 N   0  0  0  0  0
   -3.4424    1.1326  -17.3367 N   0  0  0  0  0
   -1.6676    2.2367  -18.4763 N   0  0  0  0  0
   -0.8032    1.4233  -20.5904 N   0  0  0  0  0
   -2.8627   -0.7232  -20.2528 N   0  0  0  0  0
   -7.0504   -7.2203  -17.8699 B   0  0  0  0  0
 16  1  1  0  0  0
 16  3  1  0  0  0
 16  7  1  0  0  0
 17  7  1  0  0  0
 17 49  1  0  0  0
 17  9  1  0  0  0
 18  9  1  0  0  0
 18 11  1  0  0  0
 18 12  1  0  0  0
 19  3  1  0  0  0
 20 19  1  0  0  0
 20 21  1  0  0  0
 20  4  1  0  0  0
 21 22  1  0  0  0
 21  6  1  0  0  0
 22 23  1  0  0  0
 22  5  1  0  0  0
 23  4  1  0  0  0
 23 39  1  0  0  0
 25 40  1  0  0  0
 26 41  1  0  0  0
 26 39  1  0  0  0
 27 42  1  0  0  0
 28 43  1  0  0  0
 28 25  1  0  0  0
 29 12  1  0  0  0
 30 29  1  0  0  0
 30 13  1  0  0  0
 31 13  1  0  0  0
 31 44  1  0  0  0
 31 37  1  0  0  0
 33 45  1  0  0  0
 34 46  1  0  0  0
 34 47  1  0  0  0
 35 48  1  0  0  0
 35 32  1  0  0  0
 36 44  1  0  0  0
 37 38  1  0  0  0
 37 15  1  0  0  0
 38 14  1  0  0  0
 38 30  1  0  0  0
 39 24  1  0  0  0
 44 32  1  0  0  0
 16  2  2  0  0  0
 17  8  2  0  0  0
 18 10  2  0  0  0
 24 40  2  0  0  0
 25 26  2  0  0  0
 27 41  2  0  0  0
 28 42  2  0  0  0
 32 45  2  0  0  0
 33 46  2  0  0  0
 34 35  2  0  0  0
 36 48  2  0  0  0
M  END
> <rmsd>
0.580113053

$$$$
CHEMBL3946551 PubChem-134147917


 90 94  0  0  0  0  0  0  0  0999 V2000
   -7.6113  -17.8570  -19.2960 N   0  0  0  0  0
   -7.5660  -14.8343  -19.2918 N   0  0  0  0  0
   -5.8877  -12.6533  -18.6216 N   0  0  0  0  0
   -2.9156  -10.3671  -18.9204 N   0  0  0  0  0
   -5.2584   -7.9832  -17.4381 N   0  0  0  0  0
   -5.9287   -4.9089  -19.1535 N   0  0  0  0  0
   -6.0791   -1.8469  -18.5655 N   0  0  0  0  0
   -8.8249  -22.0864  -20.4461 N   0  0  0  0  0
   -9.0120  -28.2021  -18.1679 N   0  0  0  0  0
   -6.4647  -17.0804  -18.8516 C   0  0  0  0  0
   -6.9250  -15.7380  -18.3798 C   0  0  0  0  0
   -8.2312  -13.5942  -18.9013 C   0  0  0  0  0
   -7.2796  -12.5969  -18.3004 C   0  0  0  0  0
   -4.9349  -11.6843  -18.0903 C   0  0  0  0  0
   -3.7351  -11.5345  -18.9846 C   0  0  0  0  0
   -3.1565   -9.2636  -18.0006 C   0  0  0  0  0
   -4.3393   -8.4438  -18.4290 C   0  0  0  0  0
   -6.2483   -6.9434  -17.6939 C   0  0  0  0  0
   -5.5623   -5.6521  -17.9895 C   0  0  0  0  0
   -5.0828   -3.8699  -19.7363 C   0  0  0  0  0
   -4.9563   -2.6998  -18.8154 C   0  0  0  0  0
   -5.9930   -0.6626  -17.7147 C   0  0  0  0  0
   -7.3370   -0.3547  -17.1423 C   0  0  0  0  0
   -5.4996    0.5344  -18.5272 C   0  0  0  0  0
   -4.0151    0.5231  -18.6711 C   0  0  0  0  0
   -3.4416    0.3569  -19.9382 C   0  0  0  0  0
   -2.0521    0.3331  -20.0816 C   0  0  0  0  0
   -1.2300    0.4804  -18.9603 C   0  0  0  0  0
   -1.8014    0.6593  -17.6951 C   0  0  0  0  0
   -3.1910    0.6790  -17.5488 C   0  0  0  0  0
   -5.6231   -3.4344  -21.0936 C   0  0  0  0  0
   -5.5169   -4.5607  -22.1139 C   0  0  0  0  0
   -6.7808   -5.3530  -22.1491 C   0  0  0  0  0
   -1.8857   -8.4239  -17.8297 C   0  0  0  0  0
   -1.4578   -7.7369  -19.1193 C   0  0  0  0  0
   -4.5434  -12.0104  -16.6523 C   0  0  0  0  0
   -3.8520  -13.3619  -16.5315 C   0  0  0  0  0
   -3.2837  -13.5105  -15.1627 C   0  0  0  0  0
   -9.4111  -13.8927  -17.9783 C   0  0  0  0  0
  -10.6680  -13.1845  -18.4706 C   0  0  0  0  0
  -11.1982  -13.8336  -19.7035 C   0  0  0  0  0
   -5.4687  -16.9495  -19.9916 C   0  0  0  0  0
   -4.1114  -16.6004  -19.4801 C   0  0  0  0  0
   -7.8313  -19.1962  -18.8589 C   0  0  0  0  0
   -9.0306  -19.9363  -19.3305 C   0  0  0  0  0
   -8.7350  -20.6472  -20.6412 C   0  0  0  0  0
   -7.8055  -22.8361  -19.7706 C   0  0  0  0  0
   -8.0875  -24.2193  -19.3343 C   0  0  0  0  0
   -9.0929  -24.9354  -20.0009 C   0  0  0  0  0
   -9.4063  -26.2430  -19.6320 C   0  0  0  0  0
   -8.7218  -26.8583  -18.5716 C   0  0  0  0  0
   -9.7383  -28.9933  -18.8475 C   0  0  0  0  0
   -7.7332  -26.1482  -17.8899 C   0  0  0  0  0
   -7.3940  -24.8407  -18.2648 C   0  0  0  0  0
   -6.3267  -24.1120  -17.4828 C   0  0  0  0  0
   -5.0321  -24.8835  -17.4717 C   0  0  0  0  0
   -4.3123  -25.0424  -18.6599 C   0  0  0  0  0
   -3.1677  -25.8417  -18.6873 C   0  0  0  0  0
   -2.7445  -26.4948  -17.5274 C   0  0  0  0  0
   -3.4523  -26.3331  -16.3340 C   0  0  0  0  0
   -4.5883  -25.5211  -16.2987 C   0  0  0  0  0
   -6.3041  -24.4030  -14.9677 C   0  0  0  0  0
   -6.8138  -24.0978  -13.7007 C   0  0  0  0  0
   -7.8276  -23.1450  -13.5634 C   0  0  0  0  0
   -8.3325  -22.4932  -14.6918 C   0  0  0  0  0
   -7.8271  -22.7934  -15.9593 C   0  0  0  0  0
   -6.8171  -23.7509  -16.1066 C   0  0  0  0  0
   -6.7908  -15.4346  -17.1658 O   0  0  0  0  0
   -7.7150  -11.6756  -17.5594 O   0  0  0  0  0
   -3.4110  -12.4672  -19.7693 O   0  0  0  0  0
   -4.4915   -8.1258  -19.6383 O   0  0  0  0  0
   -4.6514   -5.2378  -17.2228 O   0  0  0  0  0
   -3.8515   -2.4838  -18.2481 O   0  0  0  0  0
   -8.3510   -0.2680  -17.8862 O   0  0  0  0  0
   -7.4609   -0.1131  -15.7831 O   0  0  0  0  0
   -7.8383   -4.8392  -22.5970 O   0  0  0  0  0
   -6.7853   -6.6692  -21.7005 O   0  0  0  0  0
   -2.0615   -7.4688  -16.8273 O   0  0  0  0  0
   -3.6981  -14.4253  -14.4074 O   0  0  0  0  0
   -2.2874  -12.6493  -14.7240 O   0  0  0  0  0
  -11.5918  -15.0334  -19.6704 O   0  0  0  0  0
  -11.2606  -13.1135  -20.8895 O   0  0  0  0  0
   -3.4761  -17.4159  -18.7627 O   0  0  0  0  0
   -3.5372  -15.3814  -19.8040 O   0  0  0  0  0
   -7.0135  -19.7634  -18.0863 O   0  0  0  0  0
   -6.6765  -22.3114  -19.5603 O   0  0  0  0  0
   -5.2628  -25.3256  -15.0891 O   0  0  0  0  0
   -8.3310  -22.8419  -12.3059 O   0  0  0  0  0
   -1.6227  -27.3083  -17.5610 O   0  0  0  0  0
  -10.6583  -29.9933  -19.7128 S   0  0  0  0  0
  1 44  1  0  0  0
  8 47  1  0  0  0
 10  1  1  0  0  0
 10 11  1  0  0  0
 10 42  1  0  0  0
 11  2  1  0  0  0
 12  2  1  0  0  0
 12 13  1  0  0  0
 12 39  1  0  0  0
 13  3  1  0  0  0
 14  3  1  0  0  0
 14 15  1  0  0  0
 14 36  1  0  0  0
 15  4  1  0  0  0
 16  4  1  0  0  0
 16 17  1  0  0  0
 16 34  1  0  0  0
 17  5  1  0  0  0
 18  5  1  0  0  0
 18 19  1  0  0  0
 19  6  1  0  0  0
 20  6  1  0  0  0
 20 21  1  0  0  0
 20 31  1  0  0  0
 21  7  1  0  0  0
 22  7  1  0  0  0
 22 23  1  0  0  0
 22 24  1  0  0  0
 23 75  1  0  0  0
 24 25  1  0  0  0
 26 27  1  0  0  0
 28 29  1  0  0  0
 30 25  1  0  0  0
 31 32  1  0  0  0
 32 33  1  0  0  0
 33 77  1  0  0  0
 34 78  1  0  0  0
 34 35  1  0  0  0
 36 37  1  0  0  0
 37 38  1  0  0  0
 38 80  1  0  0  0
 39 40  1  0  0  0
 40 41  1  0  0  0
 41 82  1  0  0  0
 42 43  1  0  0  0
 43 84  1  0  0  0
 45 44  1  0  0  0
 45 46  1  0  0  0
 46  8  1  0  0  0
 47 48  1  0  0  0
 49 50  1  0  0  0
 51  9  1  0  0  0
 51 53  1  0  0  0
 54 48  1  0  0  0
 55 54  1  0  0  0
 55 56  1  0  0  0
 55 67  1  0  0  0
 57 58  1  0  0  0
 59 60  1  0  0  0
 59 89  1  0  0  0
 61 87  1  0  0  0
 61 56  1  0  0  0
 62 87  1  0  0  0
 63 64  1  0  0  0
 64 88  1  0  0  0
 65 66  1  0  0  0
 67 62  1  0  0  0
  9 52  2  0  0  0
 11 68  2  0  0  0
 13 69  2  0  0  0
 15 70  2  0  0  0
 17 71  2  0  0  0
 19 72  2  0  0  0
 21 73  2  0  0  0
 23 74  2  0  0  0
 25 26  2  0  0  0
 27 28  2  0  0  0
 29 30  2  0  0  0
 33 76  2  0  0  0
 38 79  2  0  0  0
 41 81  2  0  0  0
 43 83  2  0  0  0
 44 85  2  0  0  0
 47 86  2  0  0  0
 48 49  2  0  0  0
 50 51  2  0  0  0
 52 90  2  0  0  0
 53 54  2  0  0  0
 56 57  2  0  0  0
 58 59  2  0  0  0
 60 61  2  0  0  0
 62 63  2  0  0  0
 64 65  2  0  0  0
 66 67  2  0  0  0
M  END
> <rmsd>
0.72197628

$$$$
CHEMBL402676 PubChem-9988610


 68 76  0  0  0  0  0  0  0  0999 V2000
   -7.2532    4.4587  -14.3352 N   0  0  0  0  0
   -9.0316    5.2814  -13.2042 N   0  0  0  0  0
   -9.4129    1.7683  -12.2680 N   0  0  0  0  0
   -7.5355    2.1470  -13.6775 N   0  0  0  0  0
  -10.8742    3.5752  -11.5775 N   0  0  0  0  0
   -3.8837   -1.4278  -18.6469 N   0  0  0  0  0
   -3.5117   -0.1799  -20.5009 N   0  0  0  0  0
   -1.4857    1.7658  -18.1583 N   0  0  0  0  0
   -2.4950   -0.1381  -17.1421 N   0  0  0  0  0
   -1.8060    2.2852  -20.5065 N   0  0  0  0  0
   -3.0996   -6.3035  -21.3880 N   0  0  0  0  0
   -1.7804   -5.1130  -19.9844 N   0  0  0  0  0
   -2.6765   -7.8110  -17.6865 N   0  0  0  0  0
   -3.6578   -8.0710  -19.8388 N   0  0  0  0  0
   -1.2338   -5.9344  -17.1577 N   0  0  0  0  0
   -7.8683    3.4620  -13.6893 C   0  0  0  0  0
   -8.9290    3.9528  -13.0161 C   0  0  0  0  0
   -7.9778    5.5631  -14.0236 C   0  0  0  0  0
   -9.7356    3.0968  -12.2815 C   0  0  0  0  0
   -8.3236    1.2932  -12.9550 C   0  0  0  0  0
   -8.0046   -0.1569  -12.9186 C   0  0  0  0  0
   -6.0819    4.3970  -15.2004 C   0  0  0  0  0
   -4.8653    3.9931  -14.4029 C   0  0  0  0  0
   -4.0847    3.1164  -15.3506 C   0  0  0  0  0
   -5.0606    2.8215  -16.4713 C   0  0  0  0  0
   -5.2781    1.3227  -16.5726 C   0  0  0  0  0
   -5.9577   -2.2792  -17.6827 C   0  0  0  0  0
   -4.4501   -2.4144  -17.7334 C   0  0  0  0  0
   -3.0275   -0.4432  -18.3521 C   0  0  0  0  0
   -2.8092    0.3060  -19.4558 C   0  0  0  0  0
   -4.1634   -1.2542  -19.9664 C   0  0  0  0  0
   -2.0235    1.4481  -19.3736 C   0  0  0  0  0
   -1.7102    0.9805  -17.0533 C   0  0  0  0  0
   -5.2755   -4.5010  -18.0985 C   0  0  0  0  0
   -6.4341   -3.6982  -17.5528 C   0  0  0  0  0
   -5.6071   -5.0666  -19.4733 C   0  0  0  0  0
   -4.9143   -5.7042  -22.9089 C   0  0  0  0  0
   -3.8522   -6.7202  -22.5642 C   0  0  0  0  0
   -3.0252   -6.9306  -20.2126 C   0  0  0  0  0
   -2.2432   -6.2195  -19.3733 C   0  0  0  0  0
   -2.3267   -5.1960  -21.2320 C   0  0  0  0  0
   -2.0503   -6.6576  -18.0711 C   0  0  0  0  0
   -3.4722   -8.5133  -18.5572 C   0  0  0  0  0
   -3.6271   -6.3342  -24.7919 C   0  0  0  0  0
   -4.9809   -5.7804  -24.4096 C   0  0  0  0  0
   -2.7705   -5.2272  -25.3808 C   0  0  0  0  0
   -6.2939    3.4593  -16.2271 O   0  0  0  0  0
   -6.0148    1.0219  -17.7220 O   0  0  0  0  0
   -8.0596    0.4373  -16.1855 O   0  0  0  0  0
   -6.3507   -1.4958  -16.5893 O   0  0  0  0  0
   -4.1089   -3.7131  -18.1542 O   0  0  0  0  0
   -6.6276   -4.0455  -16.2165 O   0  0  0  0  0
   -5.6856   -4.0469  -20.4248 O   0  0  0  0  0
   -8.0908   -4.9207  -20.9981 O   0  0  0  0  0
   -6.1313   -6.0559  -22.3104 O   0  0  0  0  0
   -2.9873   -6.8827  -23.6588 O   0  0  0  0  0
   -5.9666   -6.6795  -24.8266 O   0  0  0  0  0
   -1.5621   -5.7570  -25.8343 O   0  0  0  0  0
    0.7572   -4.8873  -26.6677 O   0  0  0  0  0
   -0.3142   -3.5649  -24.6842 O   0  0  0  0  0
   -1.3007   -3.3974  -27.2682 O   0  0  0  0  0
   -6.9359   -3.4533  -22.8243 O   0  0  0  0  0
   -8.0795   -0.5954  -18.5798 O   0  0  0  0  0
   -2.9730    3.7836  -15.8778 O   0  0  0  0  0
   -4.1468    5.1272  -14.0098 O   0  0  0  0  0
   -7.1458   -0.1438  -17.2417 P   0  0  0  0  0
   -6.7403   -4.6288  -21.6200 P   0  0  0  0  0
   -0.5717   -4.4130  -26.1274 P   0  0  0  0  0
  1 16  1  0  0  0
  6 29  1  0  0  0
 11 39  1  0  0  0
 16  4  1  0  0  0
 17  2  1  0  0  0
 17 19  1  0  0  0
 18  1  1  0  0  0
 19  5  1  0  0  0
 20  3  1  0  0  0
 21 20  1  0  0  0
 22  1  1  0  0  0
 22 23  1  0  0  0
 22 47  1  0  0  0
 23 24  1  0  0  0
 23 65  1  0  0  0
 24 25  1  0  0  0
 24 64  1  0  0  0
 25 47  1  0  0  0
 25 26  1  0  0  0
 26 48  1  0  0  0
 27 50  1  0  0  0
 27 28  1  0  0  0
 28  6  1  0  0  0
 28 51  1  0  0  0
 29  9  1  0  0  0
 30  7  1  0  0  0
 30 32  1  0  0  0
 31  6  1  0  0  0
 32 10  1  0  0  0
 33  8  1  0  0  0
 34 51  1  0  0  0
 34 35  1  0  0  0
 34 36  1  0  0  0
 35 52  1  0  0  0
 35 27  1  0  0  0
 36 53  1  0  0  0
 37 55  1  0  0  0
 37 38  1  0  0  0
 38 11  1  0  0  0
 38 56  1  0  0  0
 39 14  1  0  0  0
 40 12  1  0  0  0
 40 42  1  0  0  0
 41 11  1  0  0  0
 42 15  1  0  0  0
 43 13  1  0  0  0
 44 56  1  0  0  0
 44 45  1  0  0  0
 44 46  1  0  0  0
 45 57  1  0  0  0
 45 37  1  0  0  0
 46 58  1  0  0  0
 66 48  1  0  0  0
 66 50  1  0  0  0
 66 63  1  0  0  0
 67 53  1  0  0  0
 67 55  1  0  0  0
 67 62  1  0  0  0
 68 58  1  0  0  0
 68 60  1  0  0  0
 68 61  1  0  0  0
 16 17  2  0  0  0
 18  2  2  0  0  0
 19  3  2  0  0  0
 20  4  2  0  0  0
 29 30  2  0  0  0
 31  7  2  0  0  0
 32  8  2  0  0  0
 33  9  2  0  0  0
 39 40  2  0  0  0
 41 12  2  0  0  0
 42 13  2  0  0  0
 43 14  2  0  0  0
 66 49  2  0  0  0
 67 54  2  0  0  0
 68 59  2  0  0  0
M  END
> <rmsd>
0.844044626

$$$$
CHEMBL436901 PubChem-44344967


118125  0  0  0  0  0  0  0  0999 V2000
   -1.3948   -8.4212  -18.3080 C   0  0  0  0  0
    0.0401   -8.6686  -17.7967 C   0  0  0  0  0
    0.1295  -10.9264  -18.4305 C   0  0  0  0  0
   -1.4099  -10.9503  -18.4451 C   0  0  0  0  0
   -2.0094   -9.6521  -18.9753 C   0  0  0  0  0
    1.7047  -12.4234  -18.8793 C   0  0  0  0  0
    3.0209  -11.8873  -19.4665 C   0  0  0  0  0
    4.2078  -12.7541  -19.0273 C   0  0  0  0  0
    3.8075  -14.1684  -18.5907 C   0  0  0  0  0
    1.5561  -13.9447  -19.0831 C   0  0  0  0  0
    0.7892  -14.6179  -17.9468 C   0  0  0  0  0
    5.3968  -15.8793  -17.7508 C   0  0  0  0  0
    6.4548  -16.6386  -18.0368 C   0  0  0  0  0
    7.1111  -17.5998  -17.1359 C   0  0  0  0  0
    7.3270  -18.6132  -14.8767 C   0  0  0  0  0
    8.8126  -18.5826  -14.7405 C   0  0  0  0  0
    9.5720  -19.6533  -15.2270 C   0  0  0  0  0
   10.9661  -19.6360  -15.1050 C   0  0  0  0  0
   11.6025  -18.5500  -14.4974 C   0  0  0  0  0
   10.8436  -17.4798  -14.0070 C   0  0  0  0  0
    9.4510  -17.4960  -14.1290 C   0  0  0  0  0
    4.7020  -15.9356  -16.4239 C   0  0  0  0  0
    0.2162   -8.8440  -16.3079 C   0  0  0  0  0
    0.8153  -10.2749  -14.3829 C   0  0  0  0  0
   -0.4948  -10.5657  -13.7294 C   0  0  0  0  0
   -0.9956  -11.8727  -13.7209 C   0  0  0  0  0
   -2.2321  -12.1412  -13.1245 C   0  0  0  0  0
   -2.9728  -11.1040  -12.5557 C   0  0  0  0  0
   -2.4778   -9.7990  -12.5719 C   0  0  0  0  0
   -1.2437   -9.5280  -13.1633 C   0  0  0  0  0
   -2.1681   -6.5083  -17.3942 C   0  0  0  0  0
   -2.9516   -5.8708  -16.2354 C   0  0  0  0  0
   -3.4476   -4.4833  -16.6185 C   0  0  0  0  0
   -4.3449   -4.6005  -17.8572 C   0  0  0  0  0
   -3.8671   -5.6792  -18.8340 C   0  0  0  0  0
   -4.7648   -6.9118  -18.7934 C   0  0  0  0  0
   -5.7455   -2.8506  -18.3156 C   0  0  0  0  0
   -6.7903   -3.4995  -19.2316 C   0  0  0  0  0
   -8.1945   -3.3787  -18.6296 C   0  0  0  0  0
   -8.3544   -2.1053  -17.7835 C   0  0  0  0  0
   -7.1760   -1.9286  -16.7812 C   0  0  0  0  0
   -6.6538   -0.5251  -16.6290 C   0  0  0  0  0
   -4.8238    1.0943  -16.9631 C   0  0  0  0  0
   -3.4679    1.1083  -17.5734 C   0  0  0  0  0
   -3.3269    1.2155  -18.9618 C   0  0  0  0  0
   -2.0555    1.1992  -19.5394 C   0  0  0  0  0
   -0.9217    1.0685  -18.7298 C   0  0  0  0  0
   -1.0629    0.9478  -17.3441 C   0  0  0  0  0
   -2.3365    0.9623  -16.7671 C   0  0  0  0  0
   -9.8900   -0.8645  -18.8763 C   0  0  0  0  0
  -10.1526    0.1246  -20.0207 C   0  0  0  0  0
   -9.9666    1.5700  -19.5328 C   0  0  0  0  0
  -10.6295    1.8279  -18.1756 C   0  0  0  0  0
  -10.2186    0.7053  -17.2276 C   0  0  0  0  0
  -10.7599    0.9221  -15.8237 C   0  0  0  0  0
    0.7094   -9.6375  -18.5823 O   0  0  0  0  0
   -1.8251   -9.5766  -20.3597 O   0  0  0  0  0
   -1.8820  -11.2050  -17.1524 O   0  0  0  0  0
   -2.7227  -13.4410  -16.1301 O   0  0  0  0  0
   -4.3662  -11.9735  -17.2029 O   0  0  0  0  0
   -2.7630  -13.3517  -18.7183 O   0  0  0  0  0
    0.6074  -11.7635  -19.4405 O   0  0  0  0  0
    2.7530  -14.6325  -19.3999 O   0  0  0  0  0
    1.3782  -14.3266  -16.7164 O   0  0  0  0  0
    1.6414  -15.3917  -14.3661 O   0  0  0  0  0
   -0.5097  -15.6688  -15.5013 O   0  0  0  0  0
    1.5272  -17.0547  -16.3514 O   0  0  0  0  0
    4.9249  -15.0289  -18.7562 O   0  0  0  0  0
    7.9237  -18.4248  -17.6287 O   0  0  0  0  0
    6.8616  -17.5919  -15.7589 O   0  0  0  0  0
    5.2266  -14.9656  -15.5723 O   0  0  0  0  0
    5.3536  -11.1386  -15.6303 O   0  0  0  0  0
    3.4153  -12.5548  -16.0684 O   0  0  0  0  0
    3.4138  -10.1387  -17.0259 O   0  0  0  0  0
    2.9575  -11.8716  -20.8606 O   0  0  0  0  0
    0.0422   -7.8535  -15.5516 O   0  0  0  0  0
    0.6313  -10.0713  -15.7795 O   0  0  0  0  0
   -2.2632   -7.9103  -17.3335 O   0  0  0  0  0
   -2.4930   -5.9965  -18.6925 O   0  0  0  0  0
   -4.4877   -7.7254  -19.8986 O   0  0  0  0  0
   -5.7039   -9.7382  -18.7589 O   0  0  0  0  0
   -5.6133   -9.6621  -21.2054 O   0  0  0  0  0
   -7.2328   -8.0325  -20.0031 O   0  0  0  0  0
   -4.4480   -3.3636  -18.5195 O   0  0  0  0  0
   -6.1323   -2.8667  -16.9553 O   0  0  0  0  0
   -7.3800    0.3605  -16.1049 O   0  0  0  0  0
   -5.3623   -0.2152  -17.0569 O   0  0  0  0  0
   -8.5101   -0.9788  -18.6084 O   0  0  0  0  0
  -10.6448   -0.5466  -17.7160 O   0  0  0  0  0
  -10.0735    0.0962  -14.9309 O   0  0  0  0  0
  -12.0272   -1.6345  -15.1709 O   0  0  0  0  0
  -10.5571   -1.7842  -13.2148 O   0  0  0  0  0
  -12.2802    0.1497  -13.2915 O   0  0  0  0  0
  -12.0227    1.8815  -18.3074 O   0  0  0  0  0
  -10.4037    2.4935  -20.4882 O   0  0  0  0  0
  -12.7263   -1.3753  -22.4922 O   0  0  0  0  0
  -10.6041   -0.2757  -23.0354 O   0  0  0  0  0
  -10.5330   -2.4678  -21.6348 O   0  0  0  0  0
   -8.4661   -4.5028  -17.8460 O   0  0  0  0  0
   -6.7586   -2.8641  -20.4754 O   0  0  0  0  0
   -6.7600   -3.4717  -22.9999 O   0  0  0  0  0
   -5.4008   -4.8544  -21.4976 O   0  0  0  0  0
   -7.9873   -5.1389  -21.4445 O   0  0  0  0  0
   -2.3696   -3.6264  -16.8641 O   0  0  0  0  0
   -2.3408   -6.2926  -12.4455 O   0  0  0  0  0
   -4.1082   -7.1838  -13.8925 O   0  0  0  0  0
   -4.0693   -4.6266  -13.4293 O   0  0  0  0  0
   -2.9594  -12.5005  -17.2753 S   0  0  0  0  0
    0.9816  -15.6048  -15.6978 S   0  0  0  0  0
    4.3160  -11.5053  -16.6501 S   0  0  0  0  0
   -5.7540   -8.8354  -19.9600 S   0  0  0  0  0
  -11.2423   -0.8401  -14.1599 S   0  0  0  0  0
  -11.3547   -1.0419  -21.9817 S   0  0  0  0  0
   -6.6878   -4.0885  -21.6299 S   0  0  0  0  0
   -3.1743   -6.0278  -13.6648 S   0  0  0  0  0
    5.1157  -12.0967  -18.0812 N   0  0  0  0  0
  -11.4960   -0.0769  -20.5472 N   0  0  0  0  0
   -2.1311   -5.8286  -15.0356 N   0  0  0  0  0
  1  2  1  0  0  0
  1 78  1  0  0  0
  2 56  1  0  0  0
  2 23  1  0  0  0
  3 56  1  0  0  0
  3  4  1  0  0  0
  3 62  1  0  0  0
  4  5  1  0  0  0
  4 58  1  0  0  0
  5 57  1  0  0  0
  5  1  1  0  0  0
  6 62  1  0  0  0
  6  7  1  0  0  0
  7  8  1  0  0  0
  7 75  1  0  0  0
  8  9  1  0  0  0
  8116  1  0  0  0
  9 63  1  0  0  0
  9 68  1  0  0  0
 10 63  1  0  0  0
 10 11  1  0  0  0
 10  6  1  0  0  0
 11 64  1  0  0  0
 12 68  1  0  0  0
 13 14  1  0  0  0
 14 70  1  0  0  0
 15 70  1  0  0  0
 15 16  1  0  0  0
 17 18  1  0  0  0
 19 20  1  0  0  0
 21 16  1  0  0  0
 22 12  1  0  0  0
 22 71  1  0  0  0
 23 77  1  0  0  0
 24 77  1  0  0  0
 24 25  1  0  0  0
 26 27  1  0  0  0
 28 29  1  0  0  0
 30 25  1  0  0  0
 31 78  1  0  0  0
 31 32  1  0  0  0
 31 79  1  0  0  0
 32 33  1  0  0  0
 32118  1  0  0  0
 33 34  1  0  0  0
 33104  1  0  0  0
 34 35  1  0  0  0
 34 84  1  0  0  0
 35 79  1  0  0  0
 35 36  1  0  0  0
 36 80  1  0  0  0
 37 84  1  0  0  0
 37 38  1  0  0  0
 37 85  1  0  0  0
 38 39  1  0  0  0
 38100  1  0  0  0
 39 40  1  0  0  0
 39 99  1  0  0  0
 40 41  1  0  0  0
 40 88  1  0  0  0
 41 85  1  0  0  0
 41 42  1  0  0  0
 42 87  1  0  0  0
 43 87  1  0  0  0
 43 44  1  0  0  0
 45 46  1  0  0  0
 47 48  1  0  0  0
 49 44  1  0  0  0
 50 88  1  0  0  0
 50 51  1  0  0  0
 50 89  1  0  0  0
 51 52  1  0  0  0
 51117  1  0  0  0
 52 53  1  0  0  0
 52 95  1  0  0  0
 53 54  1  0  0  0
 53 94  1  0  0  0
 54 89  1  0  0  0
 54 55  1  0  0  0
 55 90  1  0  0  0
108 58  1  0  0  0
108 61  1  0  0  0
109 64  1  0  0  0
109 67  1  0  0  0
110116  1  0  0  0
110 74  1  0  0  0
111 80  1  0  0  0
111 83  1  0  0  0
112 90  1  0  0  0
112 93  1  0  0  0
113117  1  0  0  0
113 98  1  0  0  0
114100  1  0  0  0
114103  1  0  0  0
115118  1  0  0  0
115107  1  0  0  0
 12 13  2  0  0  0
 14 69  2  0  0  0
 16 17  2  0  0  0
 18 19  2  0  0  0
 20 21  2  0  0  0
 23 76  2  0  0  0
 25 26  2  0  0  0
 27 28  2  0  0  0
 29 30  2  0  0  0
 42 86  2  0  0  0
 44 45  2  0  0  0
 46 47  2  0  0  0
 48 49  2  0  0  0
108 59  2  0  0  0
108 60  2  0  0  0
109 65  2  0  0  0
109 66  2  0  0  0
110 72  2  0  0  0
110 73  2  0  0  0
111 81  2  0  0  0
111 82  2  0  0  0
112 91  2  0  0  0
112 92  2  0  0  0
113 96  2  0  0  0
113 97  2  0  0  0
114101  2  0  0  0
114102  2  0  0  0
115105  2  0  0  0
115106  2  0  0  0
M  CHG  8  61  -1  67  -1  74  -1  83  -1  93  -1  98  -1 103  -1 107  -1
M  END
> <rmsd>
0.464484185

$$$$
CHEMBL2158202 PubChem-53388475


 46 49  0  0  0  0  0  0  0  0999 V2000
   -2.0668    1.7625  -16.6054 C   0  0  0  0  0
   -2.5579    0.7036  -17.4008 C   0  0  0  0  0
   -3.3124   -0.3725  -16.8741 C   0  0  0  0  0
   -3.7745   -1.3938  -17.7243 C   0  0  0  0  0
   -3.4912   -1.3394  -19.1018 C   0  0  0  0  0
   -2.7455   -0.2838  -19.6213 C   0  0  0  0  0
   -2.2787    0.7333  -18.7899 C   0  0  0  0  0
   -1.1005    2.7353  -18.6023 C   0  0  0  0  0
   -0.3691    3.7484  -19.2286 C   0  0  0  0  0
    0.1345    4.8178  -18.4824 C   0  0  0  0  0
   -0.0929    4.8776  -17.1012 C   0  0  0  0  0
   -0.8227    3.8672  -16.4687 C   0  0  0  0  0
   -1.3307    2.7908  -17.2111 C   0  0  0  0  0
   -4.6097   -2.5014  -17.1484 C   0  0  0  0  0
   -4.6625   -4.6938  -16.6094 C   0  0  0  0  0
   -6.2018   -4.7583  -16.7276 C   0  0  0  0  0
   -6.7397   -3.7462  -17.7515 C   0  0  0  0  0
   -6.0807   -2.3690  -17.5804 C   0  0  0  0  0
   -4.0603   -6.0687  -16.8509 C   0  0  0  0  0
   -2.2820    1.7964  -15.3616 O   0  0  0  0  0
   -1.5749    1.7266  -19.3225 O   0  0  0  0  0
    0.4040    5.9377  -16.3529 O   0  0  0  0  0
    0.8597    5.8180  -19.1177 O   0  0  0  0  0
   -3.9523   -2.3276  -19.9642 O   0  0  0  0  0
   -4.0858   -3.7597  -17.4941 O   0  0  0  0  0
   -6.7780   -1.6249  -16.6240 O   0  0  0  0  0
   -8.0569    0.6262  -16.4427 O   0  0  0  0  0
   -8.4739   -0.7582  -18.4166 O   0  0  0  0  0
   -6.2185    0.5316  -18.2659 O   0  0  0  0  0
   -6.4943   -4.2150  -19.0472 O   0  0  0  0  0
   -7.8351   -4.9970  -21.1274 O   0  0  0  0  0
   -8.4362   -5.9622  -18.9603 O   0  0  0  0  0
   -9.1348   -3.5022  -19.4562 O   0  0  0  0  0
   -6.7726   -4.5063  -15.4762 O   0  0  0  0  0
   -8.6566   -6.2496  -15.9909 O   0  0  0  0  0
   -8.1444   -5.7444  -13.6535 O   0  0  0  0  0
   -6.4571   -7.2021  -14.9723 O   0  0  0  0  0
   -4.3205   -6.4898  -18.1593 O   0  0  0  0  0
   -4.2495   -8.6802  -19.5493 O   0  0  0  0  0
   -2.3872   -8.2426  -18.0207 O   0  0  0  0  0
   -4.6759   -8.9737  -17.0090 O   0  0  0  0  0
   -3.6127   -0.4363  -15.5149 O   0  0  0  0  0
   -7.4252   -0.2994  -17.4421 S   0  0  0  0  0
   -7.9843   -4.7110  -19.6604 S   0  0  0  0  0
   -7.5534   -5.9300  -15.0218 S   0  0  0  0  0
   -3.8738   -8.1132  -18.2097 S   0  0  0  0  0
  1  2  1  0  0  0
  3  4  1  0  0  0
  3 42  1  0  0  0
  5  6  1  0  0  0
  5 24  1  0  0  0
  7 21  1  0  0  0
  7  2  1  0  0  0
  8 21  1  0  0  0
  9 10  1  0  0  0
 10 23  1  0  0  0
 11 12  1  0  0  0
 11 22  1  0  0  0
 13  1  1  0  0  0
 13  8  1  0  0  0
 14  4  1  0  0  0
 14 25  1  0  0  0
 15 25  1  0  0  0
 15 16  1  0  0  0
 15 19  1  0  0  0
 16 17  1  0  0  0
 16 34  1  0  0  0
 17 18  1  0  0  0
 17 30  1  0  0  0
 18 26  1  0  0  0
 18 14  1  0  0  0
 19 38  1  0  0  0
 43 26  1  0  0  0
 43 29  1  0  0  0
 44 30  1  0  0  0
 44 33  1  0  0  0
 45 34  1  0  0  0
 45 37  1  0  0  0
 46 38  1  0  0  0
 46 41  1  0  0  0
  1 20  2  0  0  0
  2  3  2  0  0  0
  4  5  2  0  0  0
  6  7  2  0  0  0
  8  9  2  0  0  0
 10 11  2  0  0  0
 12 13  2  0  0  0
 43 27  2  0  0  0
 43 28  2  0  0  0
 44 31  2  0  0  0
 44 32  2  0  0  0
 45 35  2  0  0  0
 45 36  2  0  0  0
 46 39  2  0  0  0
 46 40  2  0  0  0
M  END
> <rmsd>
0.750066578

$$$$
CHEMBL2059742 PubChem-70696840


 91102  0  0  0  0  0  0  0  0999 V2000
  -14.0658  -16.9419  -21.4841 P   0  0  0  0  0
  -11.2238   -9.6565  -20.0852 P   0  0  0  0  0
   -3.8035   -6.9796  -18.3141 P   0  0  0  0  0
   -7.1462    0.2062  -17.0251 P   0  0  0  0  0
  -14.7877  -17.0934  -20.1648 O   0  0  0  0  0
  -14.2660  -18.3506  -22.3979 O   0  0  0  0  0
  -12.4177  -16.6828  -21.1984 O   0  0  0  0  0
  -14.5851  -14.3631  -21.6522 O   0  0  0  0  0
  -11.8417  -12.1228  -23.7241 O   0  0  0  0  0
  -10.2790  -10.3981  -21.3132 O   0  0  0  0  0
  -12.4952  -10.4113  -19.7683 O   0  0  0  0  0
  -11.6289   -8.0916  -20.5789 O   0  0  0  0  0
   -9.4033  -10.6650  -18.4730 O   0  0  0  0  0
   -5.4421  -10.1885  -17.7062 O   0  0  0  0  0
   -4.5347   -7.8554  -19.5819 O   0  0  0  0  0
   -4.7284   -6.8048  -17.1241 O   0  0  0  0  0
   -3.3105   -5.4591  -18.8881 O   0  0  0  0  0
   -6.8639   -3.3470  -17.4221 O   0  0  0  0  0
   -6.0619   -1.0305  -16.6030 O   0  0  0  0  0
   -7.8772    0.6626  -15.7811 O   0  0  0  0  0
   -6.3195    1.5134  -17.7277 O   0  0  0  0  0
   -5.1719    4.1895  -19.2381 O   0  0  0  0  0
   -3.3715    5.8908  -18.5382 O   0  0  0  0  0
   -4.6597    4.0886  -15.8329 O   0  0  0  0  0
   -8.2810   -0.3829  -18.1338 O   0  0  0  0  0
   -3.4977   -2.7360  -18.1547 O   0  0  0  0  0
   -2.4307   -7.8278  -17.8081 O   0  0  0  0  0
   -7.6904   -9.1655  -20.2635 O   0  0  0  0  0
  -12.0358  -13.4851  -20.8387 O   0  0  0  0  0
  -14.7530  -15.5303  -22.3970 C   0  0  0  0  0
  -13.8169  -13.5326  -22.4693 C   0  0  0  0  0
  -12.8914  -12.6784  -21.6139 C   0  0  0  0  0
  -12.0638  -11.6766  -22.4177 C   0  0  0  0  0
  -10.7530  -11.6809  -21.6860 C   0  0  0  0  0
  -10.2241   -9.5399  -18.5771 C   0  0  0  0  0
   -8.1458  -10.1651  -18.1283 C   0  0  0  0  0
   -7.2237  -10.1361  -19.3532 C   0  0  0  0  0
   -5.7887   -9.7874  -18.9991 C   0  0  0  0  0
   -5.7754   -8.3011  -19.1158 C   0  0  0  0  0
   -4.4811   -4.7188  -19.0896 C   0  0  0  0  0
   -4.5816   -3.6186  -18.0441 C   0  0  0  0  0
   -5.8485   -2.8184  -18.2245 C   0  0  0  0  0
   -5.4454   -1.4199  -17.7994 C   0  0  0  0  0
   -5.4981    2.0303  -16.7224 C   0  0  0  0  0
   -5.2779    3.5146  -16.9564 C   0  0  0  0  0
   -4.3958    3.7315  -18.1693 C   0  0  0  0  0
   -3.3952    4.7650  -17.7095 C   0  0  0  0  0
   -3.8910    5.1495  -16.3359 C   0  0  0  0  0
   -1.8729    4.5452  -14.9336 C   0  0  0  0  0
   -1.2626    6.4502  -14.2278 C   0  0  0  0  0
   -0.6446    7.5548  -13.6603 C   0  0  0  0  0
   -2.3116    8.9236  -14.6797 C   0  0  0  0  0
   -2.3664    6.6145  -14.9885 C   0  0  0  0  0
   -3.9525   -1.5468  -17.5654 C   0  0  0  0  0
   -3.2326    0.0494  -19.3956 C   0  0  0  0  0
   -1.8740    1.2988  -18.3428 C   0  0  0  0  0
   -0.9316    2.2223  -17.9102 C   0  0  0  0  0
   -1.0661    1.2363  -15.7423 C   0  0  0  0  0
   -2.3755    0.3937  -17.4765 C   0  0  0  0  0
   -6.8390   -8.0434  -20.1578 C   0  0  0  0  0
   -8.3959   -6.6553  -18.7241 C   0  0  0  0  0
   -8.5131   -4.8619  -19.8508 C   0  0  0  0  0
   -8.7455   -3.5977  -20.3689 C   0  0  0  0  0
   -7.3031   -4.1521  -22.1868 C   0  0  0  0  0
   -7.6961   -5.7165  -20.5025 C   0  0  0  0  0
  -10.9043  -12.6954  -20.5646 C   0  0  0  0  0
   -8.9049  -13.6785  -19.3980 C   0  0  0  0  0
   -8.1851  -15.0608  -20.8420 C   0  0  0  0  0
   -7.5489  -16.0537  -21.5716 C   0  0  0  0  0
   -9.1408  -15.6948  -23.3150 C   0  0  0  0  0
   -9.2537  -14.4224  -21.3645 C   0  0  0  0  0
   -2.7679    5.4270  -15.4486 N   0  0  0  0  0
   -0.9227    5.1503  -14.1652 N   0  0  0  0  0
    0.5280    7.4227  -12.8630 N   0  0  0  0  0
   -1.1895    8.7831  -13.9012 N   0  0  0  0  0
   -2.9133    7.8299  -15.2375 N   0  0  0  0  0
   -3.2360   -0.4035  -18.1148 N   0  0  0  0  0
   -2.3963    1.1133  -19.5706 N   0  0  0  0  0
   -0.3849    3.1972  -18.7900 N   0  0  0  0  0
   -0.5435    2.1695  -16.6027 N   0  0  0  0  0
   -1.9937    0.3304  -16.1778 N   0  0  0  0  0
   -7.6082   -6.8556  -19.8129 N   0  0  0  0  0
   -8.9765   -5.4228  -18.7182 N   0  0  0  0  0
   -9.6021   -2.6731  -19.7108 N   0  0  0  0  0
   -8.1286   -3.2659  -21.5416 N   0  0  0  0  0
   -7.0773   -5.3977  -21.6656 N   0  0  0  0  0
   -9.7224  -13.5429  -20.4726 N   0  0  0  0  0
   -7.9311  -14.6118  -19.5981 N   0  0  0  0  0
   -6.4243  -16.7538  -21.0505 N   0  0  0  0  0
   -8.0453  -16.3527  -22.8095 N   0  0  0  0  0
   -9.7612  -14.7197  -22.5853 N   0  0  0  0  0
  1  6  1  0  0  0
  1  7  1  0  0  0
  1 30  1  0  0  0
  2 10  1  0  0  0
  2 12  1  0  0  0
  2 35  1  0  0  0
  3 15  1  0  0  0
  3 17  1  0  0  0
  3 27  1  0  0  0
  4 19  1  0  0  0
  4 21  1  0  0  0
  4 25  1  0  0  0
 30  8  1  0  0  0
 31  8  1  0  0  0
 32 31  1  0  0  0
 32 33  1  0  0  0
 32 29  1  0  0  0
 33  9  1  0  0  0
 33 34  1  0  0  0
 34 10  1  0  0  0
 34 66  1  0  0  0
 35 13  1  0  0  0
 36 13  1  0  0  0
 37 36  1  0  0  0
 37 38  1  0  0  0
 37 28  1  0  0  0
 38 14  1  0  0  0
 38 39  1  0  0  0
 39 15  1  0  0  0
 39 60  1  0  0  0
 40 17  1  0  0  0
 41 40  1  0  0  0
 41 42  1  0  0  0
 41 26  1  0  0  0
 42 18  1  0  0  0
 42 43  1  0  0  0
 43 19  1  0  0  0
 43 54  1  0  0  0
 44 21  1  0  0  0
 45 44  1  0  0  0
 45 46  1  0  0  0
 45 24  1  0  0  0
 46 22  1  0  0  0
 46 47  1  0  0  0
 47 23  1  0  0  0
 47 48  1  0  0  0
 48 24  1  0  0  0
 48 72  1  0  0  0
 50 73  1  0  0  0
 51 74  1  0  0  0
 51 75  1  0  0  0
 52 76  1  0  0  0
 53 72  1  0  0  0
 53 50  1  0  0  0
 54 26  1  0  0  0
 54 77  1  0  0  0
 56 78  1  0  0  0
 57 79  1  0  0  0
 57 80  1  0  0  0
 58 81  1  0  0  0
 59 77  1  0  0  0
 59 56  1  0  0  0
 60 28  1  0  0  0
 60 82  1  0  0  0
 62 83  1  0  0  0
 63 84  1  0  0  0
 63 85  1  0  0  0
 64 86  1  0  0  0
 65 82  1  0  0  0
 65 62  1  0  0  0
 66 29  1  0  0  0
 66 87  1  0  0  0
 68 88  1  0  0  0
 69 89  1  0  0  0
 69 90  1  0  0  0
 70 91  1  0  0  0
 71 87  1  0  0  0
 71 68  1  0  0  0
 72 49  1  0  0  0
 77 55  1  0  0  0
 82 61  1  0  0  0
 87 67  1  0  0  0
  1  5  2  0  0  0
  2 11  2  0  0  0
  3 16  2  0  0  0
  4 20  2  0  0  0
 49 73  2  0  0  0
 50 51  2  0  0  0
 52 75  2  0  0  0
 53 76  2  0  0  0
 55 78  2  0  0  0
 56 57  2  0  0  0
 58 80  2  0  0  0
 59 81  2  0  0  0
 61 83  2  0  0  0
 62 63  2  0  0  0
 64 85  2  0  0  0
 65 86  2  0  0  0
 67 88  2  0  0  0
 68 69  2  0  0  0
 70 90  2  0  0  0
 71 91  2  0  0  0
M  END
> <rmsd>
0.68939811

$$$$
CHEMBL1851829 PubChem-49784352 PubChem-49784353


 36 39  0  0  0  0  0  0  0  0999 V2000
   -3.4929    2.7132  -15.0421 N   0  0  0  0  0
   -5.6010    1.9657  -14.1595 N   0  0  0  0  0
   -7.0192    0.4612  -15.3163 N   0  0  0  0  0
   -6.2077   -0.2986  -17.4442 N   0  0  0  0  0
   -4.6683    1.9228  -15.1545 C   0  0  0  0  0
   -6.7614    1.2460  -14.2324 C   0  0  0  0  0
   -6.1008    0.4107  -16.3119 C   0  0  0  0  0
   -4.9261    1.1108  -16.2668 C   0  0  0  0  0
   -4.2592    0.8187  -17.4597 C   0  0  0  0  0
   -2.9418    1.2641  -17.9559 C   0  0  0  0  0
   -1.9541    1.9289  -17.2474 C   0  0  0  0  0
   -0.7992    2.1757  -18.0038 C   0  0  0  0  0
   -0.8564    1.7049  -19.3120 C   0  0  0  0  0
   -5.0917   -0.0517  -18.1668 C   0  0  0  0  0
   -7.3454   -1.1155  -17.8492 C   0  0  0  0  0
   -7.6517   -2.5851  -19.5321 C   0  0  0  0  0
   -6.8180   -3.3409  -20.5497 C   0  0  0  0  0
   -8.0709   -1.2565  -20.1020 C   0  0  0  0  0
   -8.1777   -0.3797  -18.8833 C   0  0  0  0  0
   -2.3600    0.9805  -19.5045 S   0  0  0  0  0
   -6.8967   -2.3459  -18.3724 O   0  0  0  0  0
   -6.5466   -4.6272  -20.0781 O   0  0  0  0  0
   -7.6999   -5.6502  -22.1883 O   0  0  0  0  0
   -5.2171   -4.9217  -22.4998 O   0  0  0  0  0
   -5.9422   -7.1738  -21.0129 O   0  0  0  0  0
   -3.3831   -6.7583  -21.4547 O   0  0  0  0  0
   -4.2838   -5.9841  -19.1125 O   0  0  0  0  0
   -4.0058   -8.6771  -19.7776 O   0  0  0  0  0
   -2.0823   -9.9778  -18.5755 O   0  0  0  0  0
   -1.3488   -7.7865  -19.7766 O   0  0  0  0  0
   -2.8214   -7.7538  -17.4339 O   0  0  0  0  0
   -9.2892   -1.3740  -20.7767 O   0  0  0  0  0
   -9.4966   -0.2986  -18.4256 O   0  0  0  0  0
   -6.3759   -5.5900  -21.4613 P   0  0  0  0  0
   -4.3682   -7.1215  -20.3657 P   0  0  0  0  0
   -2.5555   -8.5763  -18.8892 P   0  0  0  0  0
  1  5  1  0  0  0
  4  7  1  0  0  0
  6  2  1  0  0  0
  7  3  1  0  0  0
  8  9  1  0  0  0
  8  5  1  0  0  0
  9 10  1  0  0  0
 10 20  1  0  0  0
 11 12  1  0  0  0
 13 20  1  0  0  0
 14  4  1  0  0  0
 15  4  1  0  0  0
 15 21  1  0  0  0
 16 21  1  0  0  0
 16 17  1  0  0  0
 16 18  1  0  0  0
 17 22  1  0  0  0
 18 32  1  0  0  0
 18 19  1  0  0  0
 19 33  1  0  0  0
 19 15  1  0  0  0
 34 22  1  0  0  0
 34 24  1  0  0  0
 34 25  1  0  0  0
 35 25  1  0  0  0
 35 27  1  0  0  0
 35 28  1  0  0  0
 36 28  1  0  0  0
 36 30  1  0  0  0
 36 31  1  0  0  0
  5  2  2  0  0  0
  6  3  2  0  0  0
  7  8  2  0  0  0
  9 14  2  0  0  0
 10 11  2  0  0  0
 12 13  2  0  0  0
 34 23  2  0  0  0
 35 26  2  0  0  0
 36 29  2  0  0  0
M  END
> <rmsd>
0.765433311

$$$$
CHEMBL1163419 PubChem-5287422


 46 50  0  0  0  0  0  0  0  0999 V2000
    0.2103    2.6313  -20.1909 N   0  0  0  0  0
   -1.3413    1.4247  -21.6109 N   0  0  0  0  0
   -3.3663    0.5079  -20.7618 N   0  0  0  0  0
   -1.7851    2.0420  -18.0361 N   0  0  0  0  0
   -3.6999    0.8925  -18.3969 N   0  0  0  0  0
   -8.6802    2.4755  -20.4057 N   0  0  0  0  0
  -11.6689    3.1858  -16.7463 N   0  0  0  0  0
   -8.0425    0.2150  -15.7927 N   0  0  0  0  0
   -1.0014    1.9088  -20.3786 C   0  0  0  0  0
   -2.5099    0.7322  -21.8050 C   0  0  0  0  0
   -3.0183    0.9886  -19.5441 C   0  0  0  0  0
   -1.8768    1.6758  -19.3278 C   0  0  0  0  0
   -2.9295    1.5417  -17.4883 C   0  0  0  0  0
   -4.9812    0.2455  -18.1467 C   0  0  0  0  0
   -6.2507   -1.4149  -18.9388 C   0  0  0  0  0
   -6.2422   -2.4397  -20.0591 C   0  0  0  0  0
   -6.9438   -0.1538  -19.4057 C   0  0  0  0  0
   -8.1803    1.2472  -18.1635 C   0  0  0  0  0
   -6.0839    0.9434  -18.9102 C   0  0  0  0  0
   -9.0199    2.2152  -19.0287 C   0  0  0  0  0
  -10.1207    2.8054  -18.5475 C   0  0  0  0  0
  -10.5908    2.5987  -17.1792 C   0  0  0  0  0
   -9.8224    1.7061  -16.3147 C   0  0  0  0  0
   -8.7194    1.0732  -16.7325 C   0  0  0  0  0
   -4.9351   -1.0948  -18.5620 O   0  0  0  0  0
   -5.6086   -3.6090  -19.6311 O   0  0  0  0  0
   -7.4542   -4.9661  -20.9449 O   0  0  0  0  0
   -8.0083   -4.3366  -18.4742 O   0  0  0  0  0
   -6.1375   -6.2722  -19.0542 O   0  0  0  0  0
   -4.1914   -5.7538  -20.8001 O   0  0  0  0  0
   -6.0389   -7.4237  -21.5678 O   0  0  0  0  0
   -4.1837   -8.1489  -19.6810 O   0  0  0  0  0
   -2.0054   -6.7101  -19.2986 O   0  0  0  0  0
   -2.2941   -8.8126  -17.7869 O   0  0  0  0  0
   -3.8183   -6.5544  -17.4092 O   0  0  0  0  0
   -8.1859   -0.0209  -18.7823 O   0  0  0  0  0
   -6.8598    1.7374  -18.0628 O   0  0  0  0  0
   -9.5603    2.8550  -21.2072 O   0  0  0  0  0
   -7.3761    2.4461  -20.8373 O   0  0  0  0  0
  -12.3823    4.0320  -17.5648 O   0  0  0  0  0
  -12.1242    2.9650  -15.4642 O   0  0  0  0  0
   -8.4014    0.1789  -14.5959 O   0  0  0  0  0
   -7.0302   -0.6204  -16.1982 O   0  0  0  0  0
   -6.8165   -4.8014  -19.5815 P   0  0  0  0  0
   -5.1030   -6.8470  -20.2827 P   0  0  0  0  0
   -3.0549   -7.5217  -18.5710 P   0  0  0  0  0
  1  9  1  0  0  0
  5 11  1  0  0  0
  6 39  1  0  0  0
  7 40  1  0  0  0
  7 41  1  0  0  0
  8 43  1  0  0  0
 10  2  1  0  0  0
 11  3  1  0  0  0
 12  4  1  0  0  0
 12  9  1  0  0  0
 13  5  1  0  0  0
 14  5  1  0  0  0
 14 25  1  0  0  0
 15 25  1  0  0  0
 15 16  1  0  0  0
 15 17  1  0  0  0
 16 26  1  0  0  0
 17 36  1  0  0  0
 18 36  1  0  0  0
 18 37  1  0  0  0
 18 20  1  0  0  0
 18 24  1  0  0  0
 19 37  1  0  0  0
 19 14  1  0  0  0
 19 17  1  0  0  0
 20  6  1  0  0  0
 21 22  1  0  0  0
 22 23  1  0  0  0
 24  8  1  0  0  0
 44 26  1  0  0  0
 44 28  1  0  0  0
 44 29  1  0  0  0
 45 29  1  0  0  0
 45 31  1  0  0  0
 45 32  1  0  0  0
 46 32  1  0  0  0
 46 34  1  0  0  0
 46 35  1  0  0  0
  6 38  2  0  0  0
  8 42  2  0  0  0
  9  2  2  0  0  0
 10  3  2  0  0  0
 11 12  2  0  0  0
 13  4  2  0  0  0
 20 21  2  0  0  0
 22  7  2  0  0  0
 23 24  2  0  0  0
 44 27  2  0  0  0
 45 30  2  0  0  0
 46 33  2  0  0  0
M  CHG  7   6   1  39  -1   7   1  40  -1  41  -1   8   1  43  -1
M  END
> <rmsd>
0.822105229

$$$$
CHEMBL4095715 PubChem-137654080


 57 62  0  0  0  0  0  0  0  0999 V2000
  -10.8350   -1.0212  -12.5527 C   0  0  0  0  0
   -9.9369   -0.1624  -13.1960 C   0  0  0  0  0
  -10.3740    1.0759  -13.6816 C   0  0  0  0  0
  -11.7156    1.4469  -13.5329 C   0  0  0  0  0
  -12.6134    0.5878  -12.8902 C   0  0  0  0  0
  -12.1730   -0.6463  -12.3996 C   0  0  0  0  0
   -9.4213    1.9861  -14.3826 C   0  0  0  0  0
   -8.2377    0.7746  -16.2210 C   0  0  0  0  0
   -8.2119    0.2385  -17.6270 C   0  0  0  0  0
   -7.1947    0.9434  -18.5460 C   0  0  0  0  0
   -5.7703    0.4280  -18.3181 C   0  0  0  0  0
   -4.7848    1.1179  -19.2616 C   0  0  0  0  0
   -3.3778    0.9006  -18.8136 C   0  0  0  0  0
   -2.5163    0.1221  -19.5924 C   0  0  0  0  0
   -1.1937   -0.0832  -19.1815 C   0  0  0  0  0
   -0.7313    0.4942  -17.9933 C   0  0  0  0  0
   -1.5907    1.2772  -17.2159 C   0  0  0  0  0
   -2.9129    1.4819  -17.6258 C   0  0  0  0  0
   -6.0679   -1.7324  -19.6723 C   0  0  0  0  0
   -5.7687   -3.1678  -19.7973 C   0  0  0  0  0
   -4.8695   -3.7821  -18.9158 C   0  0  0  0  0
   -4.5544   -5.1447  -19.0369 C   0  0  0  0  0
   -4.2280   -7.8305  -16.2712 C   0  0  0  0  0
   -2.6815   -4.9063  -17.3858 C   0  0  0  0  0
   -5.1582   -5.8850  -20.0636 C   0  0  0  0  0
   -6.0646   -5.2896  -20.9498 C   0  0  0  0  0
   -6.3615   -3.9282  -20.8131 C   0  0  0  0  0
   -6.6892   -6.0838  -22.0204 C   0  0  0  0  0
   -6.8216   -8.2401  -23.3247 C   0  0  0  0  0
   -5.7408   -8.8684  -24.1472 C   0  0  0  0  0
   -5.6891   -8.6032  -25.5190 C   0  0  0  0  0
   -4.6836   -9.1702  -26.3086 C   0  0  0  0  0
   -3.7259  -10.0054  -25.7288 C   0  0  0  0  0
   -3.7731  -10.2746  -24.3593 C   0  0  0  0  0
   -4.7782   -9.7080  -23.5682 C   0  0  0  0  0
   -7.7355   -9.2935  -22.7239 C   0  0  0  0  0
  -10.1341    1.5630  -18.1483 C   0  0  0  0  0
  -10.4364    1.9436  -16.6960 C   0  0  0  0  0
  -10.7685    3.4318  -16.6251 C   0  0  0  0  0
  -12.1284    3.7150  -17.1727 C   0  0  0  0  0
  -12.2583    4.4638  -18.3479 C   0  0  0  0  0
  -13.5275    4.7466  -18.8617 C   0  0  0  0  0
  -14.6691    4.2860  -18.1973 C   0  0  0  0  0
  -14.5422    3.5434  -17.0182 C   0  0  0  0  0
  -13.2734    3.2595  -16.5047 C   0  0  0  0  0
   -9.3145    1.6282  -15.7962 N   0  0  0  0  0
   -5.6912   -1.0246  -18.4834 N   0  0  0  0  0
   -3.5983   -5.7496  -18.1422 N   0  0  0  0  0
   -6.2458   -7.4199  -22.2702 N   0  0  0  0  0
   -9.5537    0.2258  -18.2150 N   0  0  0  0  0
   -7.2993    0.4871  -15.4329 O   0  0  0  0  0
   -6.6561   -1.1275  -20.6087 O   0  0  0  0  0
   -2.0667   -7.8916  -17.8555 O   0  0  0  0  0
   -4.2397   -8.2431  -18.9134 O   0  0  0  0  0
   -7.6101   -5.5815  -22.7257 O   0  0  0  0  0
   -7.2416    2.3303  -18.3690 O   0  0  0  0  0
   -3.5069   -7.4646  -17.8546 S   0  0  0  0  0
  2  3  1  0  0  0
  4  5  1  0  0  0
  6  1  1  0  0  0
  7  3  1  0  0  0
  7 46  1  0  0  0
  9  8  1  0  0  0
  9 10  1  0  0  0
  9 50  1  0  0  0
 10 11  1  0  0  0
 10 56  1  0  0  0
 11 12  1  0  0  0
 11 47  1  0  0  0
 12 13  1  0  0  0
 14 15  1  0  0  0
 16 17  1  0  0  0
 18 13  1  0  0  0
 19 20  1  0  0  0
 21 22  1  0  0  0
 22 48  1  0  0  0
 24 48  1  0  0  0
 25 26  1  0  0  0
 26 28  1  0  0  0
 27 20  1  0  0  0
 28 49  1  0  0  0
 29 49  1  0  0  0
 29 30  1  0  0  0
 29 36  1  0  0  0
 31 32  1  0  0  0
 33 34  1  0  0  0
 35 30  1  0  0  0
 37 50  1  0  0  0
 37 38  1  0  0  0
 38 39  1  0  0  0
 38 46  1  0  0  0
 39 40  1  0  0  0
 41 42  1  0  0  0
 43 44  1  0  0  0
 45 40  1  0  0  0
 46  8  1  0  0  0
 47 19  1  0  0  0
 57 48  1  0  0  0
 57 23  1  0  0  0
  1  2  2  0  0  0
  3  4  2  0  0  0
  5  6  2  0  0  0
  8 51  2  0  0  0
 13 14  2  0  0  0
 15 16  2  0  0  0
 17 18  2  0  0  0
 19 52  2  0  0  0
 20 21  2  0  0  0
 22 25  2  0  0  0
 26 27  2  0  0  0
 28 55  2  0  0  0
 30 31  2  0  0  0
 32 33  2  0  0  0
 34 35  2  0  0  0
 40 41  2  0  0  0
 42 43  2  0  0  0
 44 45  2  0  0  0
 57 53  2  0  0  0
 57 54  2  0  0  0
M  END
> <rmsd>
0.762988746

$$$$
CHEMBL3410963 PubChem-118732699


 40 42  0  0  0  0  0  0  0  0999 V2000
   -8.5940   -9.3018  -17.5804 N   0  0  0  0  0
  -10.8166  -10.1593  -17.0693 N   0  0  0  0  0
   -5.8912   -8.5514  -17.2931 N   0  0  0  0  0
   -6.2588   -6.7526  -20.3486 N   0  0  0  0  0
   -7.5334   -4.0348  -19.6560 N   0  0  0  0  0
   -7.3851   -2.1892  -18.0258 N   0  0  0  0  0
   -6.1143    0.3336  -18.3048 N   0  0  0  0  0
   -3.4706    0.6413  -19.6555 N   0  0  0  0  0
   -7.8131   -8.9701  -18.6462 C   0  0  0  0  0
   -8.3952   -9.1647  -19.9046 C   0  0  0  0  0
   -9.7995   -9.7515  -17.9749 C   0  0  0  0  0
   -6.4430   -8.4530  -18.4638 C   0  0  0  0  0
   -4.0450   -8.1622  -15.7399 C   0  0  0  0  0
   -4.8725   -7.3248  -14.7724 C   0  0  0  0  0
   -2.6239   -7.6773  -15.8102 C   0  0  0  0  0
   -4.0468   -9.6040  -15.2593 C   0  0  0  0  0
   -5.7058   -7.8350  -19.5903 C   0  0  0  0  0
   -7.5214   -6.0967  -20.0307 C   0  0  0  0  0
   -7.3655   -5.2473  -18.8836 C   0  0  0  0  0
   -7.6719   -4.8675  -20.8687 C   0  0  0  0  0
   -7.5440   -2.6374  -19.3716 C   0  0  0  0  0
   -4.8920   -0.3293  -17.8809 C   0  0  0  0  0
   -3.7088    0.4562  -18.3273 C   0  0  0  0  0
   -2.3926    1.3458  -20.0951 C   0  0  0  0  0
   -1.4943    1.8964  -19.1781 C   0  0  0  0  0
   -1.7182    1.7138  -17.8081 C   0  0  0  0  0
   -2.8318    0.9880  -17.3790 C   0  0  0  0  0
   -8.5386   -5.4308  -17.9343 C   0  0  0  0  0
   -9.9485   -9.7650  -19.6404 S   0  0  0  0  0
   -7.4413   -0.5150  -17.5890 S   0  0  0  0  0
   -4.6172   -8.0849  -17.0410 O   0  0  0  0  0
   -2.2177   -6.7285  -15.0859 O   0  0  0  0  0
   -1.7348   -8.2891  -16.6873 O   0  0  0  0  0
   -4.5475   -8.2436  -19.8684 O   0  0  0  0  0
   -7.8351   -4.6367  -22.0947 O   0  0  0  0  0
   -7.7001   -1.8092  -20.3083 O   0  0  0  0  0
   -7.3651   -0.3933  -16.0927 O   0  0  0  0  0
   -8.7364    0.0828  -18.0601 O   0  0  0  0  0
   -0.9227    2.1979  -16.9605 O   0  0  0  0  0
   -0.3927    2.6146  -19.6310 O   0  0  0  0  0
  3 31  1  0  0  0
  5 20  1  0  0  0
  5 21  1  0  0  0
  8 24  1  0  0  0
  9  1  1  0  0  0
  9 12  1  0  0  0
 10 29  1  0  0  0
 11 29  1  0  0  0
 11  2  1  0  0  0
 12 17  1  0  0  0
 13 31  1  0  0  0
 13 14  1  0  0  0
 13 15  1  0  0  0
 13 16  1  0  0  0
 15 33  1  0  0  0
 17  4  1  0  0  0
 18  4  1  0  0  0
 18 19  1  0  0  0
 18 20  1  0  0  0
 19  5  1  0  0  0
 19 28  1  0  0  0
 21  6  1  0  0  0
 22  7  1  0  0  0
 22 23  1  0  0  0
 23  8  1  0  0  0
 25 26  1  0  0  0
 25 40  1  0  0  0
 26 27  1  0  0  0
 30  6  1  0  0  0
 30  7  1  0  0  0
  9 10  2  0  0  0
 11  1  2  0  0  0
 12  3  2  0  0  0
 15 32  2  0  0  0
 17 34  2  0  0  0
 20 35  2  0  0  0
 21 36  2  0  0  0
 24 25  2  0  0  0
 26 39  2  0  0  0
 27 23  2  0  0  0
 30 37  2  0  0  0
 30 38  2  0  0  0
M  END
> <rmsd>
0.617864311

$$$$
CHEMBL1098419 CHEMBL1199150 PubChem-46222215 PubChem-46222216


 33 35  0  0  0  0  0  0  0  0999 V2000
    0.1812    2.5363  -16.0164 C   0  0  0  0  0
   -1.2022    1.3116  -17.7808 C   0  0  0  0  0
   -2.3854    0.1980  -19.5468 C   0  0  0  0  0
   -3.4103   -0.1972  -18.6700 C   0  0  0  0  0
   -3.2810    0.1952  -17.3408 C   0  0  0  0  0
   -2.2204    0.9229  -16.8990 C   0  0  0  0  0
   -3.5198    0.5718  -15.2480 C   0  0  0  0  0
   -5.3790   -0.7489  -16.2903 C   0  0  0  0  0
   -6.3021   -2.1611  -17.8001 C   0  0  0  0  0
   -5.8197   -2.9102  -19.0292 C   0  0  0  0  0
   -6.7995   -0.7901  -18.1872 C   0  0  0  0  0
   -6.4500    0.0598  -16.9970 C   0  0  0  0  0
   -0.0604    2.0761  -17.3749 N   0  0  0  0  0
   -1.3211    0.9321  -19.0894 N   0  0  0  0  0
   -2.3465    1.1754  -15.5815 N   0  0  0  0  0
   -4.1057   -0.0348  -16.3075 N   0  0  0  0  0
   -2.4731   -0.2462  -21.2386 Cl  0  0  0  0  0
   -5.2341   -2.0127  -16.8990 O   0  0  0  0  0
   -6.9094   -3.3457  -19.7879 O   0  0  0  0  0
   -6.4897   -5.8117  -19.0174 O   0  0  0  0  0
   -7.7278   -5.4910  -21.3014 O   0  0  0  0  0
   -5.0153   -4.9281  -21.0484 O   0  0  0  0  0
   -5.6501   -7.2566  -22.1161 O   0  0  0  0  0
   -3.1567   -6.5582  -22.2744 O   0  0  0  0  0
   -4.3036   -7.3804  -19.8732 O   0  0  0  0  0
   -3.1858   -5.1814  -18.8969 O   0  0  0  0  0
   -1.5541   -6.9162  -20.0007 O   0  0  0  0  0
   -2.7720   -7.3902  -17.5830 O   0  0  0  0  0
   -8.1759   -0.8180  -18.4290 O   0  0  0  0  0
   -7.5431    0.2103  -16.1360 O   0  0  0  0  0
   -6.5238   -4.9325  -20.2512 P   0  0  0  0  0
   -4.5658   -6.5468  -21.3362 P   0  0  0  0  0
   -2.9650   -6.6648  -19.0991 P   0  0  0  0  0
  1 13  1  0  0  0
  3 14  1  0  0  0
  3 17  1  0  0  0
  4  5  1  0  0  0
  6 15  1  0  0  0
  6  2  1  0  0  0
  7 16  1  0  0  0
  8 16  1  0  0  0
  8 18  1  0  0  0
  9 18  1  0  0  0
  9 10  1  0  0  0
  9 11  1  0  0  0
 10 19  1  0  0  0
 11 29  1  0  0  0
 11 12  1  0  0  0
 12 30  1  0  0  0
 12  8  1  0  0  0
 13  2  1  0  0  0
 16  5  1  0  0  0
 31 19  1  0  0  0
 31 21  1  0  0  0
 31 22  1  0  0  0
 32 22  1  0  0  0
 32 24  1  0  0  0
 32 25  1  0  0  0
 33 25  1  0  0  0
 33 27  1  0  0  0
 33 28  1  0  0  0
  2 14  2  0  0  0
  3  4  2  0  0  0
  5  6  2  0  0  0
  7 15  2  0  0  0
 31 20  2  0  0  0
 32 23  2  0  0  0
 33 26  2  0  0  0
M  END
> <rmsd>
0.746223867

$$$$
CHEMBL1163294 PubChem-46846194


 69 74  0  0  0  0  0  0  0  0999 V2000
   -0.3017   -6.1647  -19.5175 C   0  0  0  0  0
   -0.5455   -4.6767  -19.8595 C   0  0  0  0  0
   -0.7206   -3.8362  -18.5856 C   0  0  0  0  0
   -1.6961   -4.5040  -17.5934 C   0  0  0  0  0
   -1.6137   -6.0277  -17.6878 C   0  0  0  0  0
   -2.0667   -7.9716  -16.2255 C   0  0  0  0  0
   -2.5962   -8.4622  -14.9454 C   0  0  0  0  0
   -2.7532   -9.8363  -14.7164 C   0  0  0  0  0
   -3.2768  -10.2949  -13.5066 C   0  0  0  0  0
   -3.6533   -9.3790  -12.5152 C   0  0  0  0  0
   -3.4993   -8.0059  -12.7401 C   0  0  0  0  0
   -2.9738   -7.5518  -13.9512 C   0  0  0  0  0
   -3.7854   -3.3663  -16.9476 C   0  0  0  0  0
   -5.0686   -2.7620  -17.3572 C   0  0  0  0  0
   -5.5011   -1.6080  -16.6925 C   0  0  0  0  0
   -6.6853   -0.9723  -17.0623 C   0  0  0  0  0
   -7.4479   -1.4749  -18.1190 C   0  0  0  0  0
   -7.0332   -2.6246  -18.8012 C   0  0  0  0  0
   -5.8521   -3.2887  -18.4137 C   0  0  0  0  0
   -5.5200   -4.6214  -19.0420 C   0  0  0  0  0
   -6.0537   -4.8205  -20.4675 C   0  0  0  0  0
   -7.3546   -4.1196  -20.7135 C   0  0  0  0  0
   -5.8051   -5.7968  -18.0862 C   0  0  0  0  0
   -7.2811   -6.0352  -17.7263 C   0  0  0  0  0
   -8.0848   -6.7061  -18.7977 C   0  0  0  0  0
   -5.0346   -7.0544  -18.3762 C   0  0  0  0  0
   -1.1767   -1.4869  -17.9599 C   0  0  0  0  0
   -2.0462   -0.3214  -18.1837 C   0  0  0  0  0
   -2.8910   -0.2800  -19.3022 C   0  0  0  0  0
   -3.7459    0.8064  -19.5042 C   0  0  0  0  0
   -3.7631    1.8612  -18.5830 C   0  0  0  0  0
   -2.9250    1.8238  -17.4603 C   0  0  0  0  0
   -2.0719    0.7344  -17.2623 C   0  0  0  0  0
    1.0417   -6.5967  -20.0756 C   0  0  0  0  0
    1.5945   -6.0418  -22.4163 C   0  0  0  0  0
    1.4995   -6.3783  -23.8441 C   0  0  0  0  0
    0.9044   -7.5855  -24.2448 C   0  0  0  0  0
    0.8351   -7.9262  -25.5989 C   0  0  0  0  0
    1.3535   -7.0548  -26.5658 C   0  0  0  0  0
    1.9538   -5.8484  -26.1704 C   0  0  0  0  0
    2.0266   -5.5136  -24.8151 C   0  0  0  0  0
   -0.3355   -6.4161  -18.1270 O   0  0  0  0  0
   -1.9068   -6.5972  -16.4203 O   0  0  0  0  0
   -1.7789   -8.7857  -17.1471 O   0  0  0  0  0
   -3.8670   -7.0882  -11.7638 O   0  0  0  0  0
   -4.1819   -9.8316  -11.3096 O   0  0  0  0  0
   -3.4234  -11.6597  -13.2965 O   0  0  0  0  0
   -3.0299   -4.0923  -17.8664 O   0  0  0  0  0
   -3.3589   -3.1995  -15.7739 O   0  0  0  0  0
   -8.0592   -4.4594  -21.7002 O   0  0  0  0  0
   -7.7946   -3.0939  -19.8767 O   0  0  0  0  0
   -5.1026   -4.3828  -21.3942 O   0  0  0  0  0
   -9.1196   -6.1478  -19.2404 O   0  0  0  0  0
   -7.7355   -7.9669  -19.2641 O   0  0  0  0  0
   -4.3653   -7.1774  -19.4365 O   0  0  0  0  0
   -5.0587   -8.0969  -17.4591 O   0  0  0  0  0
   -8.6144   -0.8251  -18.5000 O   0  0  0  0  0
   -7.0988    0.1652  -16.3826 O   0  0  0  0  0
   -1.1409   -2.5117  -18.9090 O   0  0  0  0  0
   -0.5058   -1.5856  -16.8941 O   0  0  0  0  0
   -2.9372    2.8662  -16.5393 O   0  0  0  0  0
   -4.6072    2.9466  -18.7848 O   0  0  0  0  0
   -4.5752    0.8329  -20.6183 O   0  0  0  0  0
   -1.6797   -4.5693  -20.6676 O   0  0  0  0  0
    0.9299   -6.8307  -21.4733 O   0  0  0  0  0
    2.2840   -5.0540  -22.0466 O   0  0  0  0  0
    2.4748   -4.9764  -27.1207 O   0  0  0  0  0
    1.2667   -7.3848  -27.9142 O   0  0  0  0  0
    0.2488   -9.1306  -25.9783 O   0  0  0  0  0
  1  2  1  0  0  0
  1 34  1  0  0  0
  1 42  1  0  0  0
  2  3  1  0  0  0
  2 64  1  0  0  0
  3  4  1  0  0  0
  3 59  1  0  0  0
  4  5  1  0  0  0
  4 48  1  0  0  0
  5 42  1  0  0  0
  5 43  1  0  0  0
  6 43  1  0  0  0
  6  7  1  0  0  0
  8  9  1  0  0  0
  9 47  1  0  0  0
 10 11  1  0  0  0
 10 46  1  0  0  0
 11 45  1  0  0  0
 12  7  1  0  0  0
 13 48  1  0  0  0
 13 14  1  0  0  0
 15 16  1  0  0  0
 16 58  1  0  0  0
 17 18  1  0  0  0
 17 57  1  0  0  0
 18 51  1  0  0  0
 19 14  1  0  0  0
 20 19  1  0  0  0
 20 21  1  0  0  0
 20 23  1  0  0  0
 21 22  1  0  0  0
 21 52  1  0  0  0
 22 51  1  0  0  0
 23 24  1  0  0  0
 23 26  1  0  0  0
 24 25  1  0  0  0
 25 54  1  0  0  0
 26 56  1  0  0  0
 27 59  1  0  0  0
 27 28  1  0  0  0
 29 30  1  0  0  0
 30 63  1  0  0  0
 31 32  1  0  0  0
 31 62  1  0  0  0
 32 61  1  0  0  0
 33 28  1  0  0  0
 34 65  1  0  0  0
 35 65  1  0  0  0
 35 36  1  0  0  0
 37 38  1  0  0  0
 38 69  1  0  0  0
 39 40  1  0  0  0
 39 68  1  0  0  0
 40 67  1  0  0  0
 41 36  1  0  0  0
  6 44  2  0  0  0
  7  8  2  0  0  0
  9 10  2  0  0  0
 11 12  2  0  0  0
 13 49  2  0  0  0
 14 15  2  0  0  0
 16 17  2  0  0  0
 18 19  2  0  0  0
 22 50  2  0  0  0
 25 53  2  0  0  0
 26 55  2  0  0  0
 27 60  2  0  0  0
 28 29  2  0  0  0
 30 31  2  0  0  0
 32 33  2  0  0  0
 35 66  2  0  0  0
 36 37  2  0  0  0
 38 39  2  0  0  0
 40 41  2  0  0  0
M  END
> <rmsd>
0.741221607

$$$$
CHEMBL2153284 PubChem-71454849


 40 41  0  0  0  0  0  0  0  0999 V2000
   -1.9742   -1.0271  -12.4364 O   0  0  0  0  0
   -3.3300   -2.0544  -14.2002 O   0  0  0  0  0
   -4.4301   -0.2295  -12.6928 O   0  0  0  0  0
   -2.4804    0.3988  -14.5477 O   0  0  0  0  0
   -4.5429   -1.3770  -17.1508 O   0  0  0  0  0
   -4.3208   -3.2614  -18.5100 O   0  0  0  0  0
   -3.4931   -5.9778  -18.2169 O   0  0  0  0  0
   -1.7949   -7.1817  -19.8030 O   0  0  0  0  0
   -3.8326   -8.3965  -19.1603 O   0  0  0  0  0
   -1.9713   -8.0934  -17.3826 O   0  0  0  0  0
   -7.2866   -4.5272  -19.8766 O   0  0  0  0  0
   -8.8062   -6.3698  -20.8986 O   0  0  0  0  0
   -8.0094   -4.5956  -22.3881 O   0  0  0  0  0
   -6.3227   -6.4345  -21.6397 O   0  0  0  0  0
   -5.0170   -2.0344  -21.0517 O   0  0  0  0  0
   -4.5018   -0.7674  -23.2584 O   0  0  0  0  0
   -6.5876   -2.0440  -23.1542 O   0  0  0  0  0
   -6.4394    0.1980  -21.8325 O   0  0  0  0  0
   -7.4711   -1.7052  -18.4713 O   0  0  0  0  0
   -7.6219    0.8069  -19.2239 O   0  0  0  0  0
   -6.9237    0.3319  -16.9123 O   0  0  0  0  0
   -9.4176   -0.0190  -17.5416 O   0  0  0  0  0
   -3.0371   -0.7721  -13.4667 S   0  0  0  0  0
   -2.7804   -7.4289  -18.6948 S   0  0  0  0  0
   -7.6420   -5.4768  -21.2252 S   0  0  0  0  0
   -5.6386   -1.1803  -22.3674 S   0  0  0  0  0
   -7.8145   -0.1078  -18.0436 S   0  0  0  0  0
   -3.5500    0.6525  -15.4100 C   0  0  0  0  0
   -3.0972    0.5437  -16.8289 C   0  0  0  0  0
   -2.1685    1.4653  -17.3291 C   0  0  0  0  0
   -1.7404    1.3846  -18.6561 C   0  0  0  0  0
   -2.2411    0.3841  -19.4911 C   0  0  0  0  0
   -3.1715   -0.5341  -18.9991 C   0  0  0  0  0
   -3.6094   -0.4628  -17.6662 C   0  0  0  0  0
   -5.2288   -2.3642  -17.9199 C   0  0  0  0  0
   -5.0918   -4.3608  -18.9307 C   0  0  0  0  0
   -4.1844   -5.5066  -19.3351 C   0  0  0  0  0
   -6.0162   -3.9893  -20.1047 C   0  0  0  0  0
   -6.1181   -2.4673  -20.3039 C   0  0  0  0  0
   -6.1608   -1.7142  -18.9628 C   0  0  0  0  0
 23  3  1  0  0  0
 23  4  1  0  0  0
 24  7  1  0  0  0
 24 10  1  0  0  0
 25 11  1  0  0  0
 25 14  1  0  0  0
 26 15  1  0  0  0
 26 18  1  0  0  0
 27 19  1  0  0  0
 27 22  1  0  0  0
 28  4  1  0  0  0
 28 29  1  0  0  0
 30 31  1  0  0  0
 32 33  1  0  0  0
 34  5  1  0  0  0
 34 29  1  0  0  0
 35  5  1  0  0  0
 35  6  1  0  0  0
 36  6  1  0  0  0
 36 37  1  0  0  0
 36 38  1  0  0  0
 37  7  1  0  0  0
 38 11  1  0  0  0
 38 39  1  0  0  0
 39 15  1  0  0  0
 39 40  1  0  0  0
 40 19  1  0  0  0
 40 35  1  0  0  0
 23  1  2  0  0  0
 23  2  2  0  0  0
 24  8  2  0  0  0
 24  9  2  0  0  0
 25 12  2  0  0  0
 25 13  2  0  0  0
 26 16  2  0  0  0
 26 17  2  0  0  0
 27 20  2  0  0  0
 27 21  2  0  0  0
 29 30  2  0  0  0
 31 32  2  0  0  0
 33 34  2  0  0  0
M  CHG  5   3  -1  10  -1  14  -1  18  -1  22  -1
M  END
> <rmsd>
0.784778416

$$$$
CHEMBL384588 PubChem-44348548


119130  0  0  0  0  0  0  0  0999 V2000
   -2.1437    0.1532  -18.7405 C   0  0  0  0  0
   -2.4365    2.2934  -18.5599 C   0  0  0  0  0
   -3.5501    1.7114  -18.0053 C   0  0  0  0  0
   -3.3965    0.3322  -18.1317 C   0  0  0  0  0
   -4.4624   -0.7229  -17.9746 C   0  0  0  0  0
   -6.0703   -1.5497  -16.5419 C   0  0  0  0  0
   -6.2519   -2.8524  -17.3546 C   0  0  0  0  0
   -5.2377   -3.8822  -16.9681 C   0  0  0  0  0
   -3.6815   -5.4774  -17.2745 C   0  0  0  0  0
   -2.7255   -6.3050  -18.0388 C   0  0  0  0  0
   -2.1612   -4.4663  -19.7173 C   0  0  0  0  0
   -1.5805   -4.3545  -21.0872 C   0  0  0  0  0
   -0.2253   -4.7637  -22.8270 C   0  0  0  0  0
    0.8055   -5.4917  -23.5804 C   0  0  0  0  0
    0.4890   -6.5827  -24.4269 C   0  0  0  0  0
   -0.8731   -7.1495  -24.5306 C   0  0  0  0  0
   -2.9925   -7.5920  -23.9060 C   0  0  0  0  0
   -4.1454   -7.4772  -23.0092 C   0  0  0  0  0
   -5.0636   -6.3428  -20.8949 C   0  0  0  0  0
   -5.9862   -5.3874  -21.5916 C   0  0  0  0  0
   -6.1706   -2.9479  -22.2669 C   0  0  0  0  0
   -5.7903   -2.0395  -23.1931 C   0  0  0  0  0
   -6.3392    0.0993  -22.0812 C   0  0  0  0  0
   -4.8012   -2.4133  -24.2452 C   0  0  0  0  0
   -7.2919   -2.6938  -21.3396 C   0  0  0  0  0
   -8.4714   -2.9092  -19.4409 C   0  0  0  0  0
   -8.6782   -3.2836  -18.0321 C   0  0  0  0  0
   -9.4926   -2.3876  -20.2381 C   0  0  0  0  0
   -5.7586   -7.5488  -20.2489 C   0  0  0  0  0
   -6.5926   -7.0981  -19.0630 C   0  0  0  0  0
   -2.9904   -8.3404  -25.0854 C   0  0  0  0  0
    1.5187   -7.1688  -25.1669 C   0  0  0  0  0
    2.8279   -6.7068  -25.0590 C   0  0  0  0  0
    3.1113   -5.6345  -24.1931 C   0  0  0  0  0
    4.4790   -5.1118  -24.0154 C   0  0  0  0  0
    6.7157   -4.9740  -24.2430 C   0  0  0  0  0
    8.0312   -5.3886  -24.7461 C   0  0  0  0  0
   10.5756   -5.0428  -24.6207 C   0  0  0  0  0
   10.8761   -6.1780  -25.2531 C   0  0  0  0  0
   11.6554   -4.1453  -24.1756 C   0  0  0  0  0
    6.5479   -3.9006  -23.3633 C   0  0  0  0  0
   -0.9931   -3.7605  -23.4164 C   0  0  0  0  0
   -1.3967   -3.5706  -18.7611 C   0  0  0  0  0
   -1.4965   -1.1340  -19.0557 C   0  0  0  0  0
   -3.9185   -5.6931  -15.9133 C   0  0  0  0  0
   -7.2992   -0.6236  -16.5613 C   0  0  0  0  0
   -7.4197    0.3099  -17.7354 C   0  0  0  0  0
   -5.7813    1.9124  -16.8393 C   0  0  0  0  0
   -4.5722    2.5020  -17.4587 C   0  0  0  0  0
   -4.4400    3.8977  -17.5269 C   0  0  0  0  0
   -3.2986    4.4831  -18.1045 C   0  0  0  0  0
   -2.2755    3.6782  -18.6249 C   0  0  0  0  0
   -8.8406   -0.0258  -15.0319 C   0  0  0  0  0
   -9.1817    0.8591  -13.8200 C   0  0  0  0  0
   -8.7623    0.2231  -12.4844 C   0  0  0  0  0
   -9.0898   -1.2973  -12.4566 C   0  0  0  0  0
   -8.6465   -1.9442  -13.7780 C   0  0  0  0  0
   -8.8713   -3.4463  -13.7777 C   0  0  0  0  0
  -10.6438   -1.5992  -10.6678 C   0  0  0  0  0
  -11.4837   -0.8172  -12.7285 C   0  0  0  0  0
   -7.2639    0.4048  -12.2944 C   0  0  0  0  0
   -0.3734    2.4109  -20.8234 C   0  0  0  0  0
    0.9730    3.9341  -22.3302 C   0  0  0  0  0
    0.6118    5.3250  -21.8327 C   0  0  0  0  0
   -0.9869    6.7745  -21.3715 C   0  0  0  0  0
   -2.2580    6.9294  -20.5592 C   0  0  0  0  0
   -3.8604    8.4565  -20.5804 C   0  0  0  0  0
   -4.5931    8.7971  -19.2924 C   0  0  0  0  0
   -3.9035    9.7376  -17.4124 C   0  0  0  0  0
   -2.6144   10.3953  -16.9489 C   0  0  0  0  0
   -2.7086   12.2199  -15.7021 C   0  0  0  0  0
   -1.3761   12.8742  -15.3800 C   0  0  0  0  0
   -0.3838   12.4034  -13.4598 C   0  0  0  0  0
    0.3961   13.1609  -12.4002 C   0  0  0  0  0
   -1.5858    1.3556  -19.0107 N   0  0  0  0  0
   -4.4186   -4.4866  -17.8544 N   0  0  0  0  0
   -2.1103   -5.8433  -19.2481 N   0  0  0  0  0
   -0.5446   -5.0922  -21.5427 N   0  0  0  0  0
   -1.8323   -6.9531  -23.6093 N   0  0  0  0  0
   -3.9859   -6.7484  -21.7882 N   0  0  0  0  0
   -5.4465   -4.1816  -22.1488 N   0  0  0  0  0
   -7.2740   -3.0913  -20.0568 N   0  0  0  0  0
   -7.5830   -3.4047  -17.1163 N   0  0  0  0  0
    5.5797   -5.6329  -24.5967 N   0  0  0  0  0
    9.2131   -4.6932  -24.3190 N   0  0  0  0  0
   11.3402   -2.9364  -23.4948 N   0  0  0  0  0
    2.0946   -5.0619  -23.4900 N   0  0  0  0  0
  -10.4783   -1.6741  -12.1088 N   0  0  0  0  0
    0.8728    2.9564  -21.2562 N   0  0  0  0  0
   -4.8114   -0.8974  -16.6255 O   0  0  0  0  0
   -2.4282   -7.4514  -17.6092 O   0  0  0  0  0
   -5.2534   -8.0003  -23.3118 O   0  0  0  0  0
   -7.2182   -5.6422  -21.6949 O   0  0  0  0  0
   -6.2989   -0.7360  -23.2333 O   0  0  0  0  0
   -9.8448   -3.5047  -17.6137 O   0  0  0  0  0
   -4.8100   -8.4729  -19.8041 O   0  0  0  0  0
    8.1067   -6.3458  -25.5615 O   0  0  0  0  0
   12.8638   -4.4389  -24.3911 O   0  0  0  0  0
    3.8218   -7.3175  -25.8146 O   0  0  0  0  0
   -2.0770   -2.3315  -18.6350 O   0  0  0  0  0
   -0.4017   -1.1486  -19.6782 O   0  0  0  0  0
   -8.2787    0.0631  -18.6212 O   0  0  0  0  0
   -6.6478    1.4611  -17.8625 O   0  0  0  0  0
   -7.4636    0.0265  -15.3308 O   0  0  0  0  0
   -9.3174   -1.3535  -14.8671 O   0  0  0  0  0
   -9.4056    0.8917  -11.4430 O   0  0  0  0  0
   -0.4104    1.5748  -19.7069 O   0  0  0  0  0
   -1.4340    2.6672  -21.4576 O   0  0  0  0  0
   -0.7622    5.4219  -21.6179 O   0  0  0  0  0
   -2.4991    8.2854  -20.3260 O   0  0  0  0  0
   -4.1102    9.9990  -18.7700 O   0  0  0  0  0
   -2.7225   11.7856  -17.0282 O   0  0  0  0  0
   -1.3427   13.2398  -14.0326 O   0  0  0  0  0
   -0.4524   13.5183  -11.3497 O   0  0  0  0  0
   -8.8214   -2.1404  -21.7641 S   0  0  0  0  0
   -1.4479   -8.1578  -25.7490 S   0  0  0  0  0
    4.8935   -3.8073  -23.0459 S   0  0  0  0  0
   -2.1078   -3.2771  -22.2513 S   0  0  0  0  0
   -5.0881   -4.5760  -15.4456 S   0  0  0  0  0
  1 75  1  0  0  0
  3  4  1  0  0  0
  5  4  1  0  0  0
  5 90  1  0  0  0
  6 90  1  0  0  0
  6  7  1  0  0  0
  6 46  1  0  0  0
  7  8  1  0  0  0
  7 83  1  0  0  0
  8119  1  0  0  0
  9 76  1  0  0  0
  9 10  1  0  0  0
 10 77  1  0  0  0
 11 77  1  0  0  0
 11 12  1  0  0  0
 11 43  1  0  0  0
 12118  1  0  0  0
 13 78  1  0  0  0
 13 14  1  0  0  0
 14 87  1  0  0  0
 15 16  1  0  0  0
 15 32  1  0  0  0
 16116  1  0  0  0
 17 79  1  0  0  0
 17 18  1  0  0  0
 18 80  1  0  0  0
 19 80  1  0  0  0
 19 20  1  0  0  0
 19 29  1  0  0  0
 20 81  1  0  0  0
 21 25  1  0  0  0
 22 94  1  0  0  0
 23 94  1  0  0  0
 24 22  1  0  0  0
 25115  1  0  0  0
 26 82  1  0  0  0
 26 27  1  0  0  0
 27 83  1  0  0  0
 28115  1  0  0  0
 29 96  1  0  0  0
 29 30  1  0  0  0
 31116  1  0  0  0
 33 34  1  0  0  0
 33 99  1  0  0  0
 34 35  1  0  0  0
 35117  1  0  0  0
 36 84  1  0  0  0
 36 37  1  0  0  0
 37 85  1  0  0  0
 38 40  1  0  0  0
 40 86  1  0  0  0
 41117  1  0  0  0
 42118  1  0  0  0
 43100  1  0  0  0
 44100  1  0  0  0
 44  1  1  0  0  0
 45119  1  0  0  0
 46 47  1  0  0  0
 46104  1  0  0  0
 47103  1  0  0  0
 48103  1  0  0  0
 48 49  1  0  0  0
 49  3  1  0  0  0
 50 51  1  0  0  0
 52  2  1  0  0  0
 53104  1  0  0  0
 53 54  1  0  0  0
 53105  1  0  0  0
 54 55  1  0  0  0
 55 56  1  0  0  0
 55106  1  0  0  0
 55 61  1  0  0  0
 56 57  1  0  0  0
 56 88  1  0  0  0
 57105  1  0  0  0
 57 58  1  0  0  0
 59 88  1  0  0  0
 60 88  1  0  0  0
 62107  1  0  0  0
 62 89  1  0  0  0
 63 89  1  0  0  0
 63 64  1  0  0  0
 64109  1  0  0  0
 65109  1  0  0  0
 65 66  1  0  0  0
 66110  1  0  0  0
 67110  1  0  0  0
 67 68  1  0  0  0
 68111  1  0  0  0
 69111  1  0  0  0
 69 70  1  0  0  0
 70112  1  0  0  0
 71112  1  0  0  0
 71 72  1  0  0  0
 72113  1  0  0  0
 73113  1  0  0  0
 73 74  1  0  0  0
 74114  1  0  0  0
 75  2  1  0  0  0
 75107  1  0  0  0
 81 21  1  0  0  0
 85 38  1  0  0  0
  2  3  2  0  0  0
  4  1  2  0  0  0
  8 76  2  0  0  0
  9 45  2  0  0  0
 10 91  2  0  0  0
 12 78  2  0  0  0
 13 42  2  0  0  0
 14 15  2  0  0  0
 16 79  2  0  0  0
 17 31  2  0  0  0
 18 92  2  0  0  0
 20 93  2  0  0  0
 21 22  2  0  0  0
 25 82  2  0  0  0
 26 28  2  0  0  0
 27 95  2  0  0  0
 32 33  2  0  0  0
 34 87  2  0  0  0
 35 84  2  0  0  0
 36 41  2  0  0  0
 37 97  2  0  0  0
 38 39  2  0  0  0
 40 98  2  0  0  0
 44101  2  0  0  0
 47102  2  0  0  0
 49 50  2  0  0  0
 51 52  2  0  0  0
 62108  2  0  0  0
M  END
> <rmsd>
0.712434113

$$$$
CHEMBL4079198 PubChem-137648981


 57 63  0  0  0  0  0  0  0  0999 V2000
   -2.2716   -8.0421  -17.7673 O   0  0  0  0  0
   -4.3922   -7.7114  -18.9299 O   0  0  0  0  0
   -3.9198   -8.7315  -22.1124 O   0  0  0  0  0
   -7.7103   -7.3251  -24.6847 O   0  0  0  0  0
   -5.8092   -2.4273  -21.2617 O   0  0  0  0  0
   -4.2112   -0.7721  -21.1508 O   0  0  0  0  0
   -9.2178   -0.7386  -17.8001 O   0  0  0  0  0
   -7.4892    0.7385  -15.9165 O   0  0  0  0  0
   -5.2639    1.0954  -16.2130 O   0  0  0  0  0
   -3.8483    2.6318  -18.6872 O   0  0  0  0  0
   -1.6359    3.0907  -18.9362 O   0  0  0  0  0
    0.5027    1.0557  -19.0074 O   0  0  0  0  0
   -4.0951   -2.6647  -17.7754 O   0  0  0  0  0
   -2.1274   -3.3323  -18.7658 O   0  0  0  0  0
   -0.7323   -7.4091  -21.8130 O   0  0  0  0  0
   -0.1493   -7.2148  -19.5220 O   0  0  0  0  0
   -3.0873   -8.4578  -18.9599 S   0  0  0  0  0
   -2.2291   -8.0764  -20.4442 C   0  0  0  0  0
   -2.6764   -8.2309  -21.7324 C   0  0  0  0  0
   -4.3143   -8.7903  -23.4750 C   0  0  0  0  0
   -5.7920   -9.1248  -23.5688 C   0  0  0  0  0
   -7.4673   -7.2374  -23.4506 C   0  0  0  0  0
   -8.0990   -6.1403  -22.6409 C   0  0  0  0  0
   -6.9291   -4.3663  -23.7607 C   0  0  0  0  0
   -6.2166   -3.0255  -23.5702 C   0  0  0  0  0
   -5.2242   -3.0444  -22.4006 C   0  0  0  0  0
   -5.2300   -1.3163  -20.6443 C   0  0  0  0  0
   -5.8257   -0.7908  -19.3988 C   0  0  0  0  0
   -5.0720   -0.0824  -18.4154 C   0  0  0  0  0
   -5.7609    0.3874  -17.2920 C   0  0  0  0  0
   -7.0882    0.1723  -17.1115 C   0  0  0  0  0
   -7.8554   -0.5325  -18.0324 C   0  0  0  0  0
   -7.2051   -1.0170  -19.1850 C   0  0  0  0  0
  -10.0493   -1.4442  -18.7103 C   0  0  0  0  0
   -6.3440    1.3461  -15.3048 C   0  0  0  0  0
   -3.6118    0.1419  -18.5173 C   0  0  0  0  0
   -2.6519   -0.9167  -18.5170 C   0  0  0  0  0
   -1.2820   -0.6062  -18.6889 C   0  0  0  0  0
   -0.8446    0.7258  -18.8391 C   0  0  0  0  0
   -1.8109    1.7251  -18.8114 C   0  0  0  0  0
   -3.1305    1.4490  -18.6587 C   0  0  0  0  0
   -2.9245    3.7151  -18.8598 C   0  0  0  0  0
    1.5322    0.0749  -19.0370 C   0  0  0  0  0
   -3.0115   -2.3411  -18.3324 C   0  0  0  0  0
   -2.4251   -4.7148  -18.6359 C   0  0  0  0  0
   -4.7920   -4.4676  -22.0496 C   0  0  0  0  0
   -6.0018   -5.3644  -21.7385 C   0  0  0  0  0
   -3.3826  -10.1853  -18.8875 C   0  0  0  0  0
   -2.4492  -11.0322  -18.2778 C   0  0  0  0  0
   -2.6765  -12.4110  -18.2363 C   0  0  0  0  0
   -3.8349  -12.9462  -18.8085 C   0  0  0  0  0
   -4.7655  -12.1025  -19.4227 C   0  0  0  0  0
   -4.5388  -10.7236  -19.4634 C   0  0  0  0  0
   -6.5588   -8.1403  -22.8231 N   0  0  0  0  0
   -7.2284   -4.9714  -22.4586 N   0  0  0  0  0
   -1.7143   -7.8025  -22.5800 N   0  0  0  0  0
   -0.9981   -7.5555  -20.5483 N   0  0  0  0  0
 17 18  1  0  0  0
 17 48  1  0  0  0
 18 19  1  0  0  0
 19  3  1  0  0  0
 20  3  1  0  0  0
 20 21  1  0  0  0
 21 54  1  0  0  0
 23 22  1  0  0  0
 23 55  1  0  0  0
 24 55  1  0  0  0
 24 25  1  0  0  0
 25 26  1  0  0  0
 26  5  1  0  0  0
 26 46  1  0  0  0
 27  5  1  0  0  0
 27 28  1  0  0  0
 28 29  1  0  0  0
 29 36  1  0  0  0
 30 31  1  0  0  0
 30  9  1  0  0  0
 31  8  1  0  0  0
 32 33  1  0  0  0
 32  7  1  0  0  0
 34  7  1  0  0  0
 35  8  1  0  0  0
 35  9  1  0  0  0
 37 38  1  0  0  0
 37 44  1  0  0  0
 39 40  1  0  0  0
 39 12  1  0  0  0
 40 11  1  0  0  0
 41 10  1  0  0  0
 41 36  1  0  0  0
 42 10  1  0  0  0
 42 11  1  0  0  0
 43 12  1  0  0  0
 44 14  1  0  0  0
 45 14  1  0  0  0
 46 47  1  0  0  0
 47 55  1  0  0  0
 49 50  1  0  0  0
 51 52  1  0  0  0
 53 48  1  0  0  0
 54 22  1  0  0  0
 56 15  1  0  0  0
 57 15  1  0  0  0
 57 16  1  0  0  0
 17  1  2  0  0  0
 17  2  2  0  0  0
 19 56  2  0  0  0
 22  4  2  0  0  0
 27  6  2  0  0  0
 29 30  2  0  0  0
 31 32  2  0  0  0
 33 28  2  0  0  0
 36 37  2  0  0  0
 38 39  2  0  0  0
 40 41  2  0  0  0
 44 13  2  0  0  0
 48 49  2  0  0  0
 50 51  2  0  0  0
 52 53  2  0  0  0
 57 18  2  0  0  0
M  CHG  2  57   1  16  -1
M  END
> <rmsd>
0.718770325

$$$$
CHEMBL2153282 PubChem-53304858


 44 46  0  0  0  0  0  0  0  0999 V2000
   -1.4639    5.4713  -16.3194 O   0  0  0  0  0
   -3.2138   -1.2712  -19.3015 O   0  0  0  0  0
   -3.8603   -3.4782  -19.5117 O   0  0  0  0  0
   -4.9827   -6.6419  -18.2756 O   0  0  0  0  0
   -3.9862   -8.6960  -19.5515 O   0  0  0  0  0
   -4.7400   -9.0103  -17.2431 O   0  0  0  0  0
   -2.5270   -7.7135  -17.6284 O   0  0  0  0  0
   -7.1144   -5.0897  -19.3221 O   0  0  0  0  0
   -8.7564   -6.9167  -20.1641 O   0  0  0  0  0
   -6.4908   -6.9208  -21.0886 O   0  0  0  0  0
   -8.1491   -5.0827  -21.8887 O   0  0  0  0  0
   -7.6948   -2.5527  -20.5806 O   0  0  0  0  0
   -9.4012   -3.2623  -18.7252 O   0  0  0  0  0
  -10.1649   -1.7567  -20.4973 O   0  0  0  0  0
   -8.6135   -0.7827  -18.6643 O   0  0  0  0  0
   -5.8994   -0.4921  -19.6997 O   0  0  0  0  0
   -6.3466    1.7595  -20.9127 O   0  0  0  0  0
   -4.3559    0.4951  -21.5681 O   0  0  0  0  0
   -6.6831   -0.3722  -22.3487 O   0  0  0  0  0
   -4.7954   -0.6903  -16.9424 O   0  0  0  0  0
   -6.6816    0.8420  -15.9410 O   0  0  0  0  0
   -6.7541   -1.5547  -15.4312 O   0  0  0  0  0
   -4.9570   -0.1055  -14.2385 O   0  0  0  0  0
   -2.4925    3.4958  -16.5583 O   0  0  0  0  0
   -1.5905    4.3920  -16.9530 C   0  0  0  0  0
   -0.7847    4.1435  -18.0690 C   0  0  0  0  0
   -0.9432    2.9441  -18.7613 C   0  0  0  0  0
   -1.8963    2.0267  -18.3254 C   0  0  0  0  0
   -2.0917    0.8203  -18.9955 C   0  0  0  0  0
   -3.0614   -0.0896  -18.5583 C   0  0  0  0  0
   -4.2866   -2.1929  -19.1419 C   0  0  0  0  0
   -4.8268   -4.3765  -19.0249 C   0  0  0  0  0
   -4.2701   -5.7874  -19.1201 C   0  0  0  0  0
   -6.1350   -4.2263  -19.8278 C   0  0  0  0  0
   -6.6259   -2.7763  -19.7071 C   0  0  0  0  0
   -5.4901   -1.7943  -20.0051 C   0  0  0  0  0
   -3.8370    0.2165  -17.4098 C   0  0  0  0  0
   -3.6315    1.4358  -16.7438 C   0  0  0  0  0
   -2.6722    2.3410  -17.1941 C   0  0  0  0  0
   -4.0728   -8.0566  -18.1928 S   0  0  0  0  0
   -7.6192   -6.0465  -20.6185 S   0  0  0  0  0
   -9.0055   -2.1142  -19.6121 S   0  0  0  0  0
   -5.7921    0.3817  -21.1387 S   0  0  0  0  0
   -5.8505   -0.3721  -15.6357 S   0  0  0  0  0
 25 26  1  0  0  0
 25 24  1  0  0  0
 27 28  1  0  0  0
 29 30  1  0  0  0
 30  2  1  0  0  0
 31  2  1  0  0  0
 31  3  1  0  0  0
 32  3  1  0  0  0
 32 33  1  0  0  0
 32 34  1  0  0  0
 33  4  1  0  0  0
 34  8  1  0  0  0
 34 35  1  0  0  0
 35 12  1  0  0  0
 35 36  1  0  0  0
 36 16  1  0  0  0
 36 31  1  0  0  0
 37 20  1  0  0  0
 37 38  1  0  0  0
 39 24  1  0  0  0
 39 28  1  0  0  0
 40  4  1  0  0  0
 40  7  1  0  0  0
 41  8  1  0  0  0
 41 11  1  0  0  0
 42 12  1  0  0  0
 42 15  1  0  0  0
 43 16  1  0  0  0
 43 19  1  0  0  0
 44 20  1  0  0  0
 44 23  1  0  0  0
 25  1  2  0  0  0
 26 27  2  0  0  0
 28 29  2  0  0  0
 30 37  2  0  0  0
 38 39  2  0  0  0
 40  5  2  0  0  0
 40  6  2  0  0  0
 41  9  2  0  0  0
 41 10  2  0  0  0
 42 13  2  0  0  0
 42 14  2  0  0  0
 43 17  2  0  0  0
 43 18  2  0  0  0
 44 21  2  0  0  0
 44 22  2  0  0  0
M  CHG  5   7  -1  11  -1  15  -1  19  -1  23  -1
M  END
> <rmsd>
0.690167308

$$$$
CHEMBL4868442 PubChem-164624209


 64 70  0  0  0  0  0  0  0  0999 V2000
   -9.4657   -3.8310  -17.2326 C   0  0  0  0  0
   -8.5464   -2.7035  -17.6535 C   0  0  0  0  0
   -6.2217   -0.7128  -18.0299 C   0  0  0  0  0
   -5.3035   -1.2990  -17.2622 C   0  0  0  0  0
   -3.9214   -1.5966  -17.7744 C   0  0  0  0  0
   -3.0802   -0.3566  -17.8005 C   0  0  0  0  0
   -3.2835    0.6420  -18.7663 C   0  0  0  0  0
   -2.5103    1.8073  -18.7467 C   0  0  0  0  0
   -1.5349    1.9816  -17.7605 C   0  0  0  0  0
   -1.3309    0.9910  -16.7949 C   0  0  0  0  0
   -2.1042   -0.1747  -16.8133 C   0  0  0  0  0
   -4.5158   -3.5177  -19.3357 C   0  0  0  0  0
   -4.6792   -4.0371  -20.7362 C   0  0  0  0  0
   -4.2211   -3.0080  -21.7660 C   0  0  0  0  0
   -3.7191   -3.6623  -23.0097 C   0  0  0  0  0
   -4.4612   -3.5755  -24.1917 C   0  0  0  0  0
   -3.9726   -4.1547  -25.3655 C   0  0  0  0  0
   -2.7393   -4.8173  -25.3616 C   0  0  0  0  0
   -1.9931   -4.8973  -24.1840 C   0  0  0  0  0
   -2.4820   -4.3199  -23.0094 C   0  0  0  0  0
   -6.6130   -5.6727  -21.1181 C   0  0  0  0  0
   -5.7520   -6.9034  -21.0731 C   0  0  0  0  0
   -4.9718   -6.9865  -19.7688 C   0  0  0  0  0
   -4.7825   -8.9921  -18.8247 C   0  0  0  0  0
   -4.7587  -10.4328  -19.3491 C   0  0  0  0  0
   -3.8177  -11.3422  -18.5438 C   0  0  0  0  0
   -4.4787  -11.8430  -17.2512 C   0  0  0  0  0
   -3.5306  -12.7542  -16.4923 C   0  0  0  0  0
   -2.2658  -12.0012  -16.1005 C   0  0  0  0  0
   -1.5637  -11.4590  -17.3587 C   0  0  0  0  0
   -2.5103  -10.5778  -18.2431 C   0  0  0  0  0
   -2.8349   -9.2433  -17.5251 C   0  0  0  0  0
   -0.7120   -8.6854  -18.2515 C   0  0  0  0  0
   -0.1065   -9.3184  -16.9844 C   0  0  0  0  0
   -0.1744  -10.8536  -17.0250 C   0  0  0  0  0
    0.1669   -7.5219  -18.6583 C   0  0  0  0  0
   -1.3640  -12.9618  -15.3429 C   0  0  0  0  0
   -6.1631  -10.9945  -19.5052 C   0  0  0  0  0
   -5.3259   -7.2092  -23.5507 C   0  0  0  0  0
   -4.7921   -7.5163  -25.9445 C   0  0  0  0  0
   -5.2738   -8.9007  -26.2169 C   0  0  0  0  0
   -6.6102   -9.1121  -26.5743 C   0  0  0  0  0
   -7.0638  -10.4055  -26.8592 C   0  0  0  0  0
   -6.1806  -11.4864  -26.7877 C   0  0  0  0  0
   -4.8438  -11.2765  -26.4312 C   0  0  0  0  0
   -4.3894   -9.9833  -26.1483 C   0  0  0  0  0
   -7.1403    1.9673  -16.8449 C   0  0  0  0  0
   -7.4880    3.2414  -16.1046 C   0  0  0  0  0
   -8.5292   -1.7222  -16.6582 O   0  0  0  0  0
   -8.7435    0.1309  -18.5054 O   0  0  0  0  0
   -4.8788   -4.2336  -18.3663 O   0  0  0  0  0
   -7.8478   -5.8128  -21.3127 O   0  0  0  0  0
   -4.1747   -8.1330  -19.7491 O   0  0  0  0  0
   -4.2038   -8.8623  -17.5342 O   0  0  0  0  0
   -2.0167   -8.1907  -17.9956 O   0  0  0  0  0
   -0.7022   -9.6516  -19.3042 O   0  0  0  0  0
   -1.9034  -10.2251  -19.4817 O   0  0  0  0  0
   -6.5652   -7.2592  -23.7864 O   0  0  0  0  0
   -4.4015   -7.3719  -24.5822 O   0  0  0  0  0
   -7.7342    0.8790  -16.2008 O   0  0  0  0  0
   -7.8513   -0.3412  -17.3781 P   0  0  0  0  0
   -3.9663   -2.2164  -19.0965 N   0  0  0  0  0
   -6.0816   -4.3490  -20.9728 N   0  0  0  0  0
   -4.8568   -6.9668  -22.2224 N   0  0  0  0  0
  1  2  1  0  0  0
  2 49  1  0  0  0
  5  4  1  0  0  0
  5  6  1  0  0  0
  5 62  1  0  0  0
  7  8  1  0  0  0
  9 10  1  0  0  0
 11  6  1  0  0  0
 13 12  1  0  0  0
 13 14  1  0  0  0
 13 63  1  0  0  0
 14 15  1  0  0  0
 16 17  1  0  0  0
 18 19  1  0  0  0
 20 15  1  0  0  0
 22 21  1  0  0  0
 22 23  1  0  0  0
 22 64  1  0  0  0
 23 53  1  0  0  0
 24 53  1  0  0  0
 24 25  1  0  0  0
 24 54  1  0  0  0
 25 26  1  0  0  0
 25 38  1  0  0  0
 26 27  1  0  0  0
 27 28  1  0  0  0
 28 29  1  0  0  0
 29 30  1  0  0  0
 29 37  1  0  0  0
 30 31  1  0  0  0
 30 35  1  0  0  0
 31 32  1  0  0  0
 31 26  1  0  0  0
 31 57  1  0  0  0
 32 54  1  0  0  0
 32 55  1  0  0  0
 33 55  1  0  0  0
 33 34  1  0  0  0
 33 56  1  0  0  0
 33 36  1  0  0  0
 34 35  1  0  0  0
 39 59  1  0  0  0
 40 59  1  0  0  0
 40 41  1  0  0  0
 42 43  1  0  0  0
 44 45  1  0  0  0
 46 41  1  0  0  0
 47 60  1  0  0  0
 47 48  1  0  0  0
 56 57  1  0  0  0
 61 49  1  0  0  0
 61  3  1  0  0  0
 61 60  1  0  0  0
 62 12  1  0  0  0
 63 21  1  0  0  0
 64 39  1  0  0  0
  3  4  2  0  0  0
  6  7  2  0  0  0
  8  9  2  0  0  0
 10 11  2  0  0  0
 12 51  2  0  0  0
 15 16  2  0  0  0
 17 18  2  0  0  0
 19 20  2  0  0  0
 21 52  2  0  0  0
 39 58  2  0  0  0
 41 42  2  0  0  0
 43 44  2  0  0  0
 45 46  2  0  0  0
 61 50  2  0  0  0
M  END
> <rmsd>
0.655221701

$$$$
CHEMBL216504 CHEMBL4082141 MolPort-006-822-583 PubChem-3315620 PubChem-4465 PubChem-6093160 PubChem-71311907


 66 71  0  0  0  0  0  0  0  0999 V2000
    1.4160   11.7479  -18.2388 O   0  0  0  0  0
    3.9596   11.4274  -17.8312 O   0  0  0  0  0
    3.2465   12.9802  -19.5978 O   0  0  0  0  0
    3.0308    5.3237  -25.2288 O   0  0  0  0  0
   -0.7952    3.8551  -21.0417 O   0  0  0  0  0
   -2.8772   -0.8211  -15.4873 O   0  0  0  0  0
   -6.1409    0.2219  -18.9281 O   0  0  0  0  0
   -8.5195   -0.5851  -18.3099 O   0  0  0  0  0
   -6.8370   -0.6083  -16.5522 O   0  0  0  0  0
   -9.3460   -6.6672  -19.5885 O   0  0  0  0  0
   -9.8496   -4.4104  -20.7631 O   0  0  0  0  0
   -8.1076   -5.8417  -21.7237 O   0  0  0  0  0
   -4.4356   -7.5006  -19.5928 O   0  0  0  0  0
   -5.3119   -7.8252  -17.1577 O   0  0  0  0  0
   -2.8930   -7.6298  -17.5160 O   0  0  0  0  0
    8.0562    9.5546  -23.3659 O   0  0  0  0  0
    7.3059   10.0247  -20.9303 O   0  0  0  0  0
    6.4267   11.4639  -22.7176 O   0  0  0  0  0
   -0.2906    7.4963  -22.5785 O   0  0  0  0  0
   -0.3775    7.8508  -20.0234 O   0  0  0  0  0
    0.9784    6.0001  -20.8449 O   0  0  0  0  0
    2.9503   11.6734  -18.9173 S   0  0  0  0  0
   -7.0683   -0.8426  -18.0179 S   0  0  0  0  0
   -8.7287   -5.3598  -20.4422 S   0  0  0  0  0
   -4.2439   -7.1365  -17.9623 S   0  0  0  0  0
    6.8153   10.0592  -22.3515 S   0  0  0  0  0
    0.5471    7.4118  -21.1238 S   0  0  0  0  0
    3.0180   10.3726  -20.0903 C   0  0  0  0  0
    1.9421    9.5120  -20.2419 C   0  0  0  0  0
    1.9673    8.4621  -21.1643 C   0  0  0  0  0
    3.1256    8.2656  -21.9880 C   0  0  0  0  0
    3.2354    7.2604  -23.0000 C   0  0  0  0  0
    2.0401    5.5128  -24.4673 C   0  0  0  0  0
    0.7819    4.8008  -24.7351 C   0  0  0  0  0
   -0.0412    4.3781  -23.6823 C   0  0  0  0  0
   -1.2374    3.6858  -23.9403 C   0  0  0  0  0
   -1.7613    3.1773  -21.4847 C   0  0  0  0  0
   -2.2937    2.1443  -19.2066 C   0  0  0  0  0
   -1.4009    2.9401  -18.4765 C   0  0  0  0  0
   -1.1434    2.6603  -17.1320 C   0  0  0  0  0
   -1.7664    1.5753  -16.5112 C   0  0  0  0  0
   -2.6652    0.7753  -17.2290 C   0  0  0  0  0
   -2.9241    1.0717  -18.5732 C   0  0  0  0  0
   -3.2548   -0.4301  -16.6236 C   0  0  0  0  0
   -4.4028   -2.5957  -17.3370 C   0  0  0  0  0
   -3.3596   -3.3808  -16.8355 C   0  0  0  0  0
   -3.3453   -4.7578  -17.0105 C   0  0  0  0  0
   -4.3566   -5.3890  -17.7257 C   0  0  0  0  0
   -5.4328   -4.6287  -18.2304 C   0  0  0  0  0
   -6.4311   -5.2590  -18.9811 C   0  0  0  0  0
   -7.5150   -4.5449  -19.4757 C   0  0  0  0  0
   -7.6382   -3.1928  -19.1843 C   0  0  0  0  0
   -6.6687   -2.5164  -18.4390 C   0  0  0  0  0
   -5.5015   -3.2194  -17.9948 C   0  0  0  0  0
   -1.6118    3.4403  -25.2643 C   0  0  0  0  0
   -0.7954    3.8580  -26.3199 C   0  0  0  0  0
    0.4031    4.5270  -26.0556 C   0  0  0  0  0
    4.4313    7.1382  -23.7174 C   0  0  0  0  0
    5.5085    7.9805  -23.4908 C   0  0  0  0  0
    5.4241    8.9886  -22.5410 C   0  0  0  0  0
    4.2403    9.1455  -21.7906 C   0  0  0  0  0
    4.1619   10.1800  -20.8501 C   0  0  0  0  0
    2.1306    6.4120  -23.3489 N   0  0  0  0  0
   -2.0611    3.1661  -22.8853 N   0  0  0  0  0
   -2.5376    2.3563  -20.6034 N   0  0  0  0  0
   -4.2440   -1.1714  -17.3474 N   0  0  0  0  0
 22  1  1  0  0  0
 22 28  1  0  0  0
 23 53  1  0  0  0
 23  7  1  0  0  0
 24 51  1  0  0  0
 24 10  1  0  0  0
 25 48  1  0  0  0
 25 13  1  0  0  0
 26 60  1  0  0  0
 26 16  1  0  0  0
 27 30  1  0  0  0
 27 19  1  0  0  0
 29 30  1  0  0  0
 31 32  1  0  0  0
 32 63  1  0  0  0
 33 34  1  0  0  0
 35 36  1  0  0  0
 36 64  1  0  0  0
 37 65  1  0  0  0
 39 40  1  0  0  0
 41 42  1  0  0  0
 42 44  1  0  0  0
 43 38  1  0  0  0
 44 66  1  0  0  0
 46 47  1  0  0  0
 48 49  1  0  0  0
 50 51  1  0  0  0
 52 53  1  0  0  0
 54 45  1  0  0  0
 54 49  1  0  0  0
 55 56  1  0  0  0
 57 34  1  0  0  0
 58 59  1  0  0  0
 60 61  1  0  0  0
 61 31  1  0  0  0
 62 28  1  0  0  0
 63 33  1  0  0  0
 64 37  1  0  0  0
 65 38  1  0  0  0
 66 45  1  0  0  0
 22  2  2  0  0  0
 22  3  2  0  0  0
 23  8  2  0  0  0
 23  9  2  0  0  0
 24 11  2  0  0  0
 24 12  2  0  0  0
 25 14  2  0  0  0
 25 15  2  0  0  0
 26 17  2  0  0  0
 26 18  2  0  0  0
 27 20  2  0  0  0
 27 21  2  0  0  0
 28 29  2  0  0  0
 30 31  2  0  0  0
 32 58  2  0  0  0
 33  4  2  0  0  0
 34 35  2  0  0  0
 36 55  2  0  0  0
 37  5  2  0  0  0
 38 39  2  0  0  0
 40 41  2  0  0  0
 42 43  2  0  0  0
 44  6  2  0  0  0
 45 46  2  0  0  0
 47 48  2  0  0  0
 49 50  2  0  0  0
 51 52  2  0  0  0
 53 54  2  0  0  0
 56 57  2  0  0  0
 59 60  2  0  0  0
 61 62  2  0  0  0
M  CHG  6   1  -1   7  -1  10  -1  13  -1  16  -1  19  -1
M  END
> <rmsd>
0.788094819

$$$$
CHEMBL607665 PubChem-46877015


 32 34  0  0  0  0  0  0  0  0999 V2000
   -0.5035    3.2366  -17.2131 N   0  0  0  0  0
   -1.6050    2.2250  -19.1248 N   0  0  0  0  0
   -3.5965    0.9445  -18.8948 N   0  0  0  0  0
   -2.7322    1.9782  -15.6554 N   0  0  0  0  0
   -4.3697    0.7408  -16.6088 N   0  0  0  0  0
   -7.4067   -4.0553  -19.3867 N   0  0  0  0  0
   -1.5539    2.4587  -17.7778 C   0  0  0  0  0
   -2.6146    1.4797  -19.6820 C   0  0  0  0  0
   -3.5375    1.1800  -17.5603 C   0  0  0  0  0
   -2.5571    1.9122  -16.9901 C   0  0  0  0  0
   -3.8662    1.2461  -15.4553 C   0  0  0  0  0
   -5.5726   -0.0764  -16.7454 C   0  0  0  0  0
   -6.6058   -1.3830  -18.2425 C   0  0  0  0  0
   -6.4136   -1.8402  -19.6798 C   0  0  0  0  0
   -7.5200   -2.7928  -20.1071 C   0  0  0  0  0
   -7.4486   -0.1234  -18.2094 C   0  0  0  0  0
   -6.7344    0.7680  -17.2183 C   0  0  0  0  0
   -5.3528   -1.1129  -17.6671 O   0  0  0  0  0
   -4.9896   -4.5159  -20.4300 O   0  0  0  0  0
   -7.0385   -5.3381  -21.8602 O   0  0  0  0  0
   -6.2756   -6.6166  -19.5011 O   0  0  0  0  0
   -4.6178   -7.0832  -21.5764 O   0  0  0  0  0
   -6.6194   -8.7131  -21.2517 O   0  0  0  0  0
   -4.4690   -8.7415  -19.5363 O   0  0  0  0  0
   -2.4434   -8.5971  -17.8840 O   0  0  0  0  0
   -4.1466   -6.6333  -17.7293 O   0  0  0  0  0
   -2.3990   -6.8940  -19.8543 O   0  0  0  0  0
   -8.7499   -0.4405  -17.7972 O   0  0  0  0  0
   -7.5434    1.1086  -16.1313 O   0  0  0  0  0
   -6.3721   -5.1242  -20.3175 P   0  0  0  0  0
   -5.4582   -7.7409  -20.4987 P   0  0  0  0  0
   -3.3493   -7.7369  -18.7353 P   0  0  0  0  0
  1  7  1  0  0  0
  5  9  1  0  0  0
  8  2  1  0  0  0
  9  3  1  0  0  0
 10  4  1  0  0  0
 10  7  1  0  0  0
 11  5  1  0  0  0
 12  5  1  0  0  0
 12 18  1  0  0  0
 13 18  1  0  0  0
 13 14  1  0  0  0
 13 16  1  0  0  0
 14 15  1  0  0  0
 15  6  1  0  0  0
 16 28  1  0  0  0
 16 17  1  0  0  0
 17 29  1  0  0  0
 17 12  1  0  0  0
 30  6  1  0  0  0
 30 20  1  0  0  0
 30 21  1  0  0  0
 31 21  1  0  0  0
 31 23  1  0  0  0
 31 24  1  0  0  0
 32 24  1  0  0  0
 32 26  1  0  0  0
 32 27  1  0  0  0
  7  2  2  0  0  0
  8  3  2  0  0  0
  9 10  2  0  0  0
 11  4  2  0  0  0
 30 19  2  0  0  0
 31 22  2  0  0  0
 32 25  2  0  0  0
M  END
> <rmsd>
0.717917085

$$$$
CHEMBL3261360


 40 42  0  0  0  0  0  0  0  0999 V2000
   -4.2160    0.0288  -19.9393 O   0  0  0  0  0
   -0.1690    2.6165  -19.7177 O   0  0  0  0  0
   -5.1918   -1.7151  -17.9193 O   0  0  0  0  0
   -6.1387   -4.2454  -18.9617 O   0  0  0  0  0
   -8.5582   -5.2284  -19.1862 O   0  0  0  0  0
   -7.1663   -5.1253  -21.3909 O   0  0  0  0  0
   -6.6113   -6.9550  -19.3513 O   0  0  0  0  0
   -4.1624   -6.0653  -19.9030 O   0  0  0  0  0
   -5.4104   -7.3168  -21.8226 O   0  0  0  0  0
   -4.4567   -8.6787  -19.6414 O   0  0  0  0  0
   -2.7157   -7.6096  -17.9758 O   0  0  0  0  0
   -3.5635  -10.0049  -17.3971 O   0  0  0  0  0
   -5.1676   -7.7944  -17.0759 O   0  0  0  0  0
   -8.5709   -0.8330  -17.8756 O   0  0  0  0  0
   -7.0714    0.9227  -16.7391 O   0  0  0  0  0
   -3.5635    0.4964  -18.9671 C   0  0  0  0  0
   -1.6921    1.7245  -18.1913 C   0  0  0  0  0
    0.9854    3.4096  -19.9515 C   0  0  0  0  0
    0.6466    4.8950  -19.8763 C   0  0  0  0  0
    0.2347    5.3074  -18.4714 C   0  0  0  0  0
    1.4354    5.3139  -17.5384 C   0  0  0  0  0
    0.9852    5.4027  -16.1208 C   0  0  0  0  0
    1.2725    6.5481  -15.3701 C   0  0  0  0  0
    0.8658    6.6303  -14.0341 C   0  0  0  0  0
    0.1772    5.5649  -13.4454 C   0  0  0  0  0
   -0.1022    4.4153  -14.1906 C   0  0  0  0  0
    0.3033    4.3326  -15.5262 C   0  0  0  0  0
   -2.1060    1.5405  -16.8759 C   0  0  0  0  0
   -3.2737    0.8178  -16.6415 C   0  0  0  0  0
   -5.2123   -0.4301  -17.3500 C   0  0  0  0  0
   -6.5377   -2.0428  -18.1438 C   0  0  0  0  0
   -6.6529   -2.9967  -19.3165 C   0  0  0  0  0
   -7.2955   -0.7716  -18.4441 C   0  0  0  0  0
   -6.4434    0.3132  -17.8289 C   0  0  0  0  0
   -2.4259    1.1999  -19.2088 N   0  0  0  0  0
   -0.6152    2.4006  -18.4328 N   0  0  0  0  0
   -3.9899    0.3043  -17.6778 N   0  0  0  0  0
   -7.1492   -5.3816  -19.7160 P   0  0  0  0  0
   -5.1301   -7.2022  -20.1582 P   0  0  0  0  0
   -3.9480   -8.4840  -18.0270 P   0  0  0  0  0
 16 35  1  0  0  0
 17 28  1  0  0  0
 18  2  1  0  0  0
 18 19  1  0  0  0
 19 20  1  0  0  0
 20 21  1  0  0  0
 21 22  1  0  0  0
 23 24  1  0  0  0
 25 26  1  0  0  0
 27 22  1  0  0  0
 29 37  1  0  0  0
 30 37  1  0  0  0
 30  3  1  0  0  0
 31  3  1  0  0  0
 31 32  1  0  0  0
 31 33  1  0  0  0
 32  4  1  0  0  0
 33 14  1  0  0  0
 33 34  1  0  0  0
 34 15  1  0  0  0
 34 30  1  0  0  0
 35 17  1  0  0  0
 36  2  1  0  0  0
 37 16  1  0  0  0
 38  4  1  0  0  0
 38  6  1  0  0  0
 38  7  1  0  0  0
 39  7  1  0  0  0
 39  9  1  0  0  0
 39 10  1  0  0  0
 40 10  1  0  0  0
 40 12  1  0  0  0
 40 13  1  0  0  0
 16  1  2  0  0  0
 17 36  2  0  0  0
 22 23  2  0  0  0
 24 25  2  0  0  0
 26 27  2  0  0  0
 28 29  2  0  0  0
 38  5  2  0  0  0
 39  8  2  0  0  0
 40 11  2  0  0  0
M  END
> <rmsd>
0.759831011

$$$$
CHEMBL1089260 PubChem-46883560


 86 88  0  0  0  0  0  0  0  0999 V2000
   -9.3822   -3.9367  -17.1796 C   0  0  0  0  0
   -8.2648   -3.0872  -16.6179 C   0  0  0  0  0
   -8.7653   -2.3745  -15.3729 C   0  0  0  0  0
   -7.1078   -4.0022  -16.2681 C   0  0  0  0  0
   -5.7766   -3.2752  -16.3256 C   0  0  0  0  0
   -5.2712   -1.2049  -14.9579 C   0  0  0  0  0
   -4.7675   -0.3942  -16.1106 C   0  0  0  0  0
   -3.3695   -0.8379  -16.5272 C   0  0  0  0  0
   -2.7126    0.1629  -17.4112 C   0  0  0  0  0
   -1.6532    0.9306  -16.9112 C   0  0  0  0  0
   -1.0307    1.8894  -17.7194 C   0  0  0  0  0
   -1.4681    2.0833  -19.0311 C   0  0  0  0  0
   -2.5183    1.3070  -19.5391 C   0  0  0  0  0
   -3.1383    0.3461  -18.7312 C   0  0  0  0  0
   -6.7530    0.5040  -17.3848 C   0  0  0  0  0
   -7.2097    0.9034  -18.7656 C   0  0  0  0  0
   -7.9841    2.2191  -18.7802 C   0  0  0  0  0
   -7.0608    3.4055  -18.5346 C   0  0  0  0  0
   -9.2170   -0.6602  -19.0252 C   0  0  0  0  0
  -10.1964   -1.2018  -20.0147 C   0  0  0  0  0
  -12.4059   -0.0421  -20.0274 C   0  0  0  0  0
  -12.9354    1.2318  -19.4315 C   0  0  0  0  0
  -14.4276    1.1746  -19.1169 C   0  0  0  0  0
  -14.8239    2.3413  -18.2154 C   0  0  0  0  0
  -13.2017    2.7482  -21.4841 C   0  0  0  0  0
  -13.1166    4.1549  -21.9878 C   0  0  0  0  0
  -14.9795    5.7272  -21.3600 C   0  0  0  0  0
  -15.7432    6.3883  -20.2501 C   0  0  0  0  0
  -16.9476    5.5574  -19.8185 C   0  0  0  0  0
  -18.0307    5.4720  -20.8898 C   0  0  0  0  0
  -15.2232    8.8178  -20.7243 C   0  0  0  0  0
  -15.7130   10.2091  -20.9877 C   0  0  0  0  0
  -16.3527   10.3122  -22.3623 C   0  0  0  0  0
  -17.7936    9.8307  -22.3073 C   0  0  0  0  0
  -18.4831   10.0143  -23.6535 C   0  0  0  0  0
  -19.7716    9.1935  -23.7371 C   0  0  0  0  0
  -20.8764    9.7873  -22.8618 C   0  0  0  0  0
  -21.1294   11.2534  -23.2108 C   0  0  0  0  0
  -19.8500   12.0638  -23.0493 C   0  0  0  0  0
  -18.7533   11.4972  -23.9491 C   0  0  0  0  0
  -11.6703    4.5798  -22.2563 C   0  0  0  0  0
  -11.6418    5.8671  -23.0536 C   0  0  0  0  0
   -9.5303   -1.8595  -21.2222 C   0  0  0  0  0
   -9.5214   -3.3731  -21.0836 C   0  0  0  0  0
   -7.3487   -4.6335  -20.8872 C   0  0  0  0  0
   -6.1053   -4.9255  -20.0851 C   0  0  0  0  0
   -5.0504   -3.8264  -20.2431 C   0  0  0  0  0
   -5.5353   -2.5013  -19.6843 C   0  0  0  0  0
   -5.5574   -7.3511  -19.5956 C   0  0  0  0  0
   -6.3074   -7.3231  -18.2914 C   0  0  0  0  0
   -7.7548   -7.7219  -18.5319 C   0  0  0  0  0
   -8.6013   -7.3640  -17.3214 C   0  0  0  0  0
   -4.5264   -7.9389  -16.5696 C   0  0  0  0  0
   -3.8427   -6.6053  -16.6938 C   0  0  0  0  0
   -2.5063   -6.5780  -15.9608 C   0  0  0  0  0
   -1.3707   -6.9892  -16.8933 C   0  0  0  0  0
   -4.6693   -4.2248  -16.6513 C   0  0  0  0  0
   -5.5190   -2.6154  -15.0541 N   0  0  0  0  0
   -5.6738   -0.4185  -17.2457 N   0  0  0  0  0
   -6.2136    3.6269  -19.6957 N   0  0  0  0  0
   -7.9531   -0.1447  -19.4546 N   0  0  0  0  0
  -11.0496   -0.1078  -20.4425 N   0  0  0  0  0
  -16.2302    2.2359  -17.8789 N   0  0  0  0  0
  -12.6000    2.4094  -20.2303 N   0  0  0  0  0
  -13.7600    5.0622  -21.0469 N   0  0  0  0  0
  -19.1023    4.6189  -20.4242 N   0  0  0  0  0
  -16.1539    7.7428  -20.6043 N   0  0  0  0  0
   -8.3592   -3.8016  -20.3133 N   0  0  0  0  0
   -5.5296   -6.2080  -20.4519 N   0  0  0  0  0
   -9.9437   -7.8784  -17.5192 N   0  0  0  0  0
   -5.7025   -8.2360  -17.3303 N   0  0  0  0  0
   -1.3742   -8.4255  -17.0995 N   0  0  0  0  0
   -4.7099   -5.5704  -16.1704 N   0  0  0  0  0
   -5.3964   -0.6358  -13.8441 O   0  0  0  0  0
   -7.3140    0.9852  -16.3579 O   0  0  0  0  0
   -9.5795   -0.5115  -17.8274 O   0  0  0  0  0
  -13.1186   -1.0865  -20.0581 O   0  0  0  0  0
  -13.8490    1.8879  -22.1354 O   0  0  0  0  0
  -15.4172    5.7443  -22.5435 O   0  0  0  0  0
  -13.9936    8.6057  -20.5775 O   0  0  0  0  0
  -10.9775    4.7704  -21.0609 O   0  0  0  0  0
   -7.4726   -5.0644  -22.0618 O   0  0  0  0  0
   -4.6607   -3.6761  -21.5812 O   0  0  0  0  0
   -4.9948   -8.4097  -19.9786 O   0  0  0  0  0
   -4.1003   -8.8017  -15.7509 O   0  0  0  0  0
   -3.7133   -3.8422  -17.3653 O   0  0  0  0  0
  1  2  1  0  0  0
  2  3  1  0  0  0
  2  4  1  0  0  0
  5  4  1  0  0  0
  5 58  1  0  0  0
  5 57  1  0  0  0
  7  6  1  0  0  0
  7  8  1  0  0  0
  7 59  1  0  0  0
  8  9  1  0  0  0
 10 11  1  0  0  0
 12 13  1  0  0  0
 14  9  1  0  0  0
 16 15  1  0  0  0
 16 17  1  0  0  0
 16 61  1  0  0  0
 17 18  1  0  0  0
 18 60  1  0  0  0
 20 19  1  0  0  0
 20 62  1  0  0  0
 20 43  1  0  0  0
 22 21  1  0  0  0
 22 23  1  0  0  0
 22 64  1  0  0  0
 23 24  1  0  0  0
 24 63  1  0  0  0
 26 25  1  0  0  0
 26 65  1  0  0  0
 26 41  1  0  0  0
 28 27  1  0  0  0
 28 29  1  0  0  0
 28 67  1  0  0  0
 29 30  1  0  0  0
 30 66  1  0  0  0
 32 31  1  0  0  0
 32 33  1  0  0  0
 33 34  1  0  0  0
 34 35  1  0  0  0
 35 36  1  0  0  0
 36 37  1  0  0  0
 37 38  1  0  0  0
 38 39  1  0  0  0
 39 40  1  0  0  0
 40 35  1  0  0  0
 41 42  1  0  0  0
 41 81  1  0  0  0
 43 44  1  0  0  0
 44 68  1  0  0  0
 46 45  1  0  0  0
 46 47  1  0  0  0
 46 69  1  0  0  0
 47 48  1  0  0  0
 47 83  1  0  0  0
 50 49  1  0  0  0
 50 51  1  0  0  0
 50 71  1  0  0  0
 51 52  1  0  0  0
 52 70  1  0  0  0
 54 53  1  0  0  0
 54 55  1  0  0  0
 54 73  1  0  0  0
 55 56  1  0  0  0
 56 72  1  0  0  0
 58  6  1  0  0  0
 59 15  1  0  0  0
 61 19  1  0  0  0
 62 21  1  0  0  0
 64 25  1  0  0  0
 65 27  1  0  0  0
 67 31  1  0  0  0
 68 45  1  0  0  0
 69 49  1  0  0  0
 71 53  1  0  0  0
 73 57  1  0  0  0
  6 74  2  0  0  0
  9 10  2  0  0  0
 11 12  2  0  0  0
 13 14  2  0  0  0
 15 75  2  0  0  0
 19 76  2  0  0  0
 21 77  2  0  0  0
 25 78  2  0  0  0
 27 79  2  0  0  0
 31 80  2  0  0  0
 45 82  2  0  0  0
 49 84  2  0  0  0
 53 85  2  0  0  0
 57 86  2  0  0  0
M  END
> <rmsd>
0.648794174

$$$$
CHEMBL384725 PubChem-44340640


 68 76  0  0  0  0  0  0  0  0999 V2000
   -3.7698    2.1959  -16.0733 N   0  0  0  0  0
   -1.6970    3.1114  -16.1685 N   0  0  0  0  0
   -1.8792    1.9198  -19.6171 N   0  0  0  0  0
   -3.8475    1.4399  -18.3725 N   0  0  0  0  0
    0.0002    3.0922  -18.6316 N   0  0  0  0  0
   -7.7423   -6.7113  -20.1704 N   0  0  0  0  0
   -8.8648   -8.1563  -21.5011 N   0  0  0  0  0
   -7.5796   -5.9513  -24.1168 N   0  0  0  0  0
   -6.9121   -5.2783  -21.9343 N   0  0  0  0  0
   -8.9885   -7.8911  -24.4821 N   0  0  0  0  0
   -7.7625  -11.4003  -22.5862 N   0  0  0  0  0
  -10.0162  -11.5414  -22.7666 N   0  0  0  0  0
   -9.5258  -14.2809  -20.4027 N   0  0  0  0  0
   -7.4882  -13.2193  -21.0197 N   0  0  0  0  0
  -11.6619  -13.5560  -21.2886 N   0  0  0  0  0
   -3.2559    2.0149  -17.2971 C   0  0  0  0  0
   -2.0180    2.5509  -17.3489 C   0  0  0  0  0
   -2.8044    2.8864  -15.4074 C   0  0  0  0  0
   -1.2951    2.5089  -18.5323 C   0  0  0  0  0
   -3.1411    1.3855  -19.5421 C   0  0  0  0  0
   -3.7494    0.7604  -20.7444 C   0  0  0  0  0
   -5.1323    1.9260  -15.6110 C   0  0  0  0  0
   -5.5726    0.5261  -15.9871 C   0  0  0  0  0
   -5.1798   -0.2536  -14.7636 C   0  0  0  0  0
   -5.2696    0.7694  -13.6552 C   0  0  0  0  0
   -4.1374    0.5771  -12.6625 C   0  0  0  0  0
   -7.0922   -2.5388  -18.5744 C   0  0  0  0  0
   -6.8627   -3.9935  -18.2144 C   0  0  0  0  0
   -7.2455   -6.0615  -18.9647 C   0  0  0  0  0
   -7.6122   -6.3314  -21.4466 C   0  0  0  0  0
   -8.2831   -7.1929  -22.2393 C   0  0  0  0  0
   -8.5124   -7.8270  -20.2259 C   0  0  0  0  0
   -8.2839   -7.0090  -23.6147 C   0  0  0  0  0
   -6.9002   -5.0934  -23.2894 C   0  0  0  0  0
   -5.7339   -5.9187  -18.9995 C   0  0  0  0  0
   -5.5155   -4.4537  -18.7050 C   0  0  0  0  0
   -4.8946   -8.3489  -20.8593 C   0  0  0  0  0
   -4.9621   -9.4444  -21.9058 C   0  0  0  0  0
   -6.3759  -10.9649  -22.7429 C   0  0  0  0  0
   -8.2119  -12.3913  -21.8102 C   0  0  0  0  0
   -9.5539  -12.4753  -21.9178 C   0  0  0  0  0
   -8.8841  -10.8942  -23.1632 C   0  0  0  0  0
  -10.2469  -13.4388  -21.1995 C   0  0  0  0  0
   -8.1614  -14.1750  -20.3097 C   0  0  0  0  0
   -6.2163   -9.9432  -23.8558 C   0  0  0  0  0
   -5.3799   -8.8555  -23.2279 C   0  0  0  0  0
   -5.2049    2.0647  -14.2082 O   0  0  0  0  0
   -4.3648   -0.5701  -11.9017 O   0  0  0  0  0
   -3.8493   -1.3824   -9.4726 O   0  0  0  0  0
   -1.7775   -0.7605  -10.9408 O   0  0  0  0  0
   -3.4764    1.1640   -9.9108 O   0  0  0  0  0
   -6.0493   -1.3195  -14.5187 O   0  0  0  0  0
   -6.9644    0.5292  -16.1489 O   0  0  0  0  0
   -6.8580    0.6304  -18.7686 O   0  0  0  0  0
   -6.3994   -1.7173  -17.6823 O   0  0  0  0  0
   -7.8361   -4.7938  -18.8245 O   0  0  0  0  0
   -4.5449   -4.2473  -17.7216 O   0  0  0  0  0
   -5.1781   -6.7362  -18.0084 O   0  0  0  0  0
   -2.9802   -8.0895  -17.6511 O   0  0  0  0  0
   -4.4591   -8.8782  -19.6437 O   0  0  0  0  0
   -5.9137  -10.4078  -21.5371 O   0  0  0  0  0
   -4.2556   -8.5365  -23.9925 O   0  0  0  0  0
   -5.5683  -10.5403  -24.9381 O   0  0  0  0  0
   -2.9793   -6.5111  -19.7221 O   0  0  0  0  0
   -8.9366   -0.5599  -17.7193 O   0  0  0  0  0
   -3.3812   -0.4091  -10.5305 P   0  0  0  0  0
   -7.2716   -0.2610  -17.6189 P   0  0  0  0  0
   -3.8829   -7.5604  -18.7409 P   0  0  0  0  0
  1 16  1  0  0  0
  6 30  1  0  0  0
 11 40  1  0  0  0
 16  4  1  0  0  0
 17  2  1  0  0  0
 17 19  1  0  0  0
 18  1  1  0  0  0
 19  5  1  0  0  0
 20  3  1  0  0  0
 21 20  1  0  0  0
 22  1  1  0  0  0
 22 23  1  0  0  0
 22 47  1  0  0  0
 23 24  1  0  0  0
 23 53  1  0  0  0
 24 25  1  0  0  0
 24 52  1  0  0  0
 25 47  1  0  0  0
 25 26  1  0  0  0
 26 48  1  0  0  0
 27 55  1  0  0  0
 28 27  1  0  0  0
 28 56  1  0  0  0
 29 56  1  0  0  0
 29  6  1  0  0  0
 29 35  1  0  0  0
 30  9  1  0  0  0
 31  7  1  0  0  0
 31 33  1  0  0  0
 32  6  1  0  0  0
 33 10  1  0  0  0
 34  8  1  0  0  0
 35 36  1  0  0  0
 35 58  1  0  0  0
 36 57  1  0  0  0
 36 28  1  0  0  0
 37 60  1  0  0  0
 38 37  1  0  0  0
 38 61  1  0  0  0
 39 61  1  0  0  0
 39 11  1  0  0  0
 39 45  1  0  0  0
 40 14  1  0  0  0
 41 12  1  0  0  0
 41 43  1  0  0  0
 42 11  1  0  0  0
 43 15  1  0  0  0
 44 13  1  0  0  0
 45 46  1  0  0  0
 45 63  1  0  0  0
 46 62  1  0  0  0
 46 38  1  0  0  0
 66 48  1  0  0  0
 66 50  1  0  0  0
 66 51  1  0  0  0
 67 53  1  0  0  0
 67 55  1  0  0  0
 67 65  1  0  0  0
 68 58  1  0  0  0
 68 60  1  0  0  0
 68 64  1  0  0  0
 16 17  2  0  0  0
 18  2  2  0  0  0
 19  3  2  0  0  0
 20  4  2  0  0  0
 30 31  2  0  0  0
 32  7  2  0  0  0
 33  8  2  0  0  0
 34  9  2  0  0  0
 40 41  2  0  0  0
 42 12  2  0  0  0
 43 13  2  0  0  0
 44 14  2  0  0  0
 66 49  2  0  0  0
 67 54  2  0  0  0
 68 59  2  0  0  0
M  END
> <rmsd>
0.764511108

$$$$
CHEMBL264592 PubChem-44413937


 71 79  0  0  0  0  0  0  0  0999 V2000
   -8.1828  -19.6072  -24.2293 O   0  0  0  0  0
   -7.1961  -20.4358  -26.5099 O   0  0  0  0  0
   -7.7864  -17.8769  -26.3642 O   0  0  0  0  0
   -7.5052  -16.0634  -24.1929 O   0  0  0  0  0
   -5.6988  -13.5542  -24.1704 O   0  0  0  0  0
   -4.8854  -11.1179  -23.6982 O   0  0  0  0  0
   -6.4557  -12.1849  -21.8929 O   0  0  0  0  0
   -6.7078   -9.2727  -21.7162 O   0  0  0  0  0
   -4.2983   -8.5574  -19.4926 O   0  0  0  0  0
   -4.8849   -7.1573  -17.3176 O   0  0  0  0  0
   -3.5009   -5.8946  -19.2021 O   0  0  0  0  0
   -3.7985   -3.1348  -18.6698 O   0  0  0  0  0
   -6.2871   -1.5637  -16.9544 O   0  0  0  0  0
   -7.6915    0.3507  -15.8561 O   0  0  0  0  0
   -6.0999    1.0811  -17.7961 O   0  0  0  0  0
   -8.4187   -0.3611  -18.2574 O   0  0  0  0  0
   -7.0974   -3.9001  -17.7161 O   0  0  0  0  0
   -2.4025   -7.8590  -17.6300 O   0  0  0  0  0
   -7.6200   -9.0445  -18.7272 O   0  0  0  0  0
   -3.8032  -12.9752  -22.2091 O   0  0  0  0  0
   -4.5024  -16.8728  -24.0756 O   0  0  0  0  0
   -9.7350  -19.8247  -26.4945 O   0  0  0  0  0
   -8.1882  -19.4616  -25.9145 P   0  0  0  0  0
   -5.1968  -12.4249  -23.0035 P   0  0  0  0  0
   -3.8270   -7.3526  -18.3855 P   0  0  0  0  0
   -7.1362   -0.1110  -17.1827 P   0  0  0  0  0
   -6.5456  -17.6242  -25.7741 C   0  0  0  0  0
   -6.5290  -16.2129  -25.1990 C   0  0  0  0  0
   -5.1707  -15.7945  -24.6605 C   0  0  0  0  0
   -5.5498  -14.8203  -23.5898 C   0  0  0  0  0
   -6.9095  -15.3347  -23.1375 C   0  0  0  0  0
   -6.2856  -15.8653  -20.7519 C   0  0  0  0  0
   -5.3483  -14.5596  -19.0568 C   0  0  0  0  0
   -5.9206  -16.8341  -18.6197 C   0  0  0  0  0
   -6.3609  -16.9346  -19.9325 C   0  0  0  0  0
   -7.1387  -17.4944  -21.8262 C   0  0  0  0  0
   -5.9200  -11.3802  -20.8845 C   0  0  0  0  0
   -6.8288  -10.1839  -20.6523 C   0  0  0  0  0
   -6.4602   -9.4955  -19.3589 C   0  0  0  0  0
   -5.6434   -8.3170  -19.7882 C   0  0  0  0  0
   -5.8296   -8.2561  -21.2931 C   0  0  0  0  0
   -5.7395   -6.0085  -22.3946 C   0  0  0  0  0
   -4.0451   -4.9318  -23.5795 C   0  0  0  0  0
   -6.1376   -3.8319  -23.2416 C   0  0  0  0  0
   -6.5673   -4.9515  -22.5442 C   0  0  0  0  0
   -7.5847   -6.4352  -21.4163 C   0  0  0  0  0
   -4.7276   -5.2383  -19.3551 C   0  0  0  0  0
   -4.8145   -4.0609  -18.3982 C   0  0  0  0  0
   -6.1344   -3.3515  -18.5695 C   0  0  0  0  0
   -5.8040   -1.9182  -18.2187 C   0  0  0  0  0
   -4.2861   -1.9063  -18.1869 C   0  0  0  0  0
   -3.0159    0.2129  -18.5730 C   0  0  0  0  0
   -1.8010    1.5720  -17.1189 C   0  0  0  0  0
   -1.9594    2.1531  -19.4286 C   0  0  0  0  0
   -2.7376    1.0195  -19.6187 C   0  0  0  0  0
   -3.9315   -0.5919  -20.3213 C   0  0  0  0  0
   -6.7642  -16.1917  -21.9584 N   0  0  0  0  0
   -5.7880  -14.6703  -20.3480 N   0  0  0  0  0
   -5.4145  -15.6336  -18.2051 N   0  0  0  0  0
   -6.8964  -17.9873  -20.5786 N   0  0  0  0  0
   -5.9852  -17.9422  -17.7292 N   0  0  0  0  0
   -6.3570   -6.9556  -21.6839 N   0  0  0  0  0
   -4.4783   -6.0309  -22.8905 N   0  0  0  0  0
   -4.8700   -3.8483  -23.7526 N   0  0  0  0  0
   -7.7478   -5.1864  -21.9401 N   0  0  0  0  0
   -6.9872   -2.7049  -23.4382 N   0  0  0  0  0
   -3.7685   -0.8078  -18.9899 N   0  0  0  0  0
   -2.5679    0.4559  -17.3173 N   0  0  0  0  0
   -1.5035    2.4085  -18.1652 N   0  0  0  0  0
   -3.3014    0.5415  -20.7453 N   0  0  0  0  0
   -1.6378    3.0273  -20.5053 N   0  0  0  0  0
 23  1  1  0  0  0
 23  3  1  0  0  0
 23 22  1  0  0  0
 24  5  1  0  0  0
 24  7  1  0  0  0
 24 20  1  0  0  0
 25  9  1  0  0  0
 25 11  1  0  0  0
 25 18  1  0  0  0
 26 13  1  0  0  0
 26 15  1  0  0  0
 26 16  1  0  0  0
 27  3  1  0  0  0
 28 27  1  0  0  0
 28 29  1  0  0  0
 28  4  1  0  0  0
 29 30  1  0  0  0
 29 21  1  0  0  0
 30 31  1  0  0  0
 30  5  1  0  0  0
 31 57  1  0  0  0
 31  4  1  0  0  0
 33 58  1  0  0  0
 34 59  1  0  0  0
 34 61  1  0  0  0
 35 60  1  0  0  0
 35 32  1  0  0  0
 36 57  1  0  0  0
 37  7  1  0  0  0
 38 37  1  0  0  0
 38 39  1  0  0  0
 38  8  1  0  0  0
 39 40  1  0  0  0
 39 19  1  0  0  0
 40 41  1  0  0  0
 40  9  1  0  0  0
 41 62  1  0  0  0
 41  8  1  0  0  0
 43 63  1  0  0  0
 44 64  1  0  0  0
 44 66  1  0  0  0
 45 65  1  0  0  0
 45 42  1  0  0  0
 46 62  1  0  0  0
 47 11  1  0  0  0
 48 47  1  0  0  0
 48 49  1  0  0  0
 48 12  1  0  0  0
 49 50  1  0  0  0
 49 17  1  0  0  0
 50 51  1  0  0  0
 50 13  1  0  0  0
 51 67  1  0  0  0
 51 12  1  0  0  0
 53 68  1  0  0  0
 54 69  1  0  0  0
 54 71  1  0  0  0
 55 70  1  0  0  0
 55 52  1  0  0  0
 56 67  1  0  0  0
 57 32  1  0  0  0
 62 42  1  0  0  0
 67 52  1  0  0  0
 23  2  2  0  0  0
 24  6  2  0  0  0
 25 10  2  0  0  0
 26 14  2  0  0  0
 32 58  2  0  0  0
 33 59  2  0  0  0
 34 35  2  0  0  0
 36 60  2  0  0  0
 42 63  2  0  0  0
 43 64  2  0  0  0
 44 45  2  0  0  0
 46 65  2  0  0  0
 52 68  2  0  0  0
 53 69  2  0  0  0
 54 55  2  0  0  0
 56 70  2  0  0  0
M  END
> <rmsd>
0.436057836

$$$$
CHEMBL3143543 PubChem-90663504


 49 54  0  0  0  0  0  0  0  0999 V2000
   -5.6780   -8.6436  -20.6483 N   0  0  0  0  0
   -4.2620   -1.1484  -18.5440 N   0  0  0  0  0
   -2.8837   -0.9957  -20.3351 N   0  0  0  0  0
   -1.3046    1.5621  -18.2574 N   0  0  0  0  0
   -3.1819    0.5486  -17.2028 N   0  0  0  0  0
   -0.5755    0.9053  -20.4752 N   0  0  0  0  0
   -7.0836  -10.3242  -20.0800 N   0  0  0  0  0
   -7.6735  -10.3630  -23.6880 N   0  0  0  0  0
   -6.1023   -8.7004  -23.0275 N   0  0  0  0  0
   -8.7204  -11.8447  -22.0784 N   0  0  0  0  0
   -4.7831   -7.4976  -20.5534 C   0  0  0  0  0
   -5.5398   -6.2722  -20.1102 C   0  0  0  0  0
   -4.4670   -5.4613  -19.4408 C   0  0  0  0  0
   -3.4840   -6.5183  -18.9801 C   0  0  0  0  0
   -3.5872   -6.6836  -17.4738 C   0  0  0  0  0
   -7.6344   -3.2591  -19.6998 C   0  0  0  0  0
   -7.2776   -2.5220  -18.4248 C   0  0  0  0  0
   -7.4793   -1.0406  -18.6082 C   0  0  0  0  0
   -6.4364   -0.4487  -17.7050 C   0  0  0  0  0
   -5.3749   -1.5284  -17.6771 C   0  0  0  0  0
   -3.3272   -0.2226  -18.3074 C   0  0  0  0  0
   -2.5030   -0.1347  -19.3730 C   0  0  0  0  0
   -3.9761   -1.6042  -19.7916 C   0  0  0  0  0
   -1.4554    0.7741  -19.3643 C   0  0  0  0  0
   -2.1549    1.4524  -17.1859 C   0  0  0  0  0
   -6.2577   -9.1275  -21.7504 C   0  0  0  0  0
   -7.0921  -10.1336  -21.4128 C   0  0  0  0  0
   -6.2034   -9.3813  -19.6355 C   0  0  0  0  0
   -7.8282  -10.7814  -22.3962 C   0  0  0  0  0
   -6.8215   -9.3339  -24.0049 C   0  0  0  0  0
   -3.7611   -7.7478  -19.6191 O   0  0  0  0  0
   -2.5747   -7.5319  -17.0183 O   0  0  0  0  0
   -3.9079   -7.9802  -14.7912 O   0  0  0  0  0
   -1.3105   -8.2792  -14.6783 O   0  0  0  0  0
   -2.4736   -5.7863  -14.8586 O   0  0  0  0  0
   -3.8256   -4.6283  -20.3613 O   0  0  0  0  0
   -6.1010   -5.6051  -21.2068 O   0  0  0  0  0
   -8.4563   -4.7536  -21.9866 O   0  0  0  0  0
   -7.9573   -4.5846  -19.3991 O   0  0  0  0  0
   -5.9298   -2.7591  -18.0961 O   0  0  0  0  0
   -6.9325   -0.2696  -16.4113 O   0  0  0  0  0
   -8.7734   -0.6660  -18.2300 O   0  0  0  0  0
  -10.8167    0.6241  -19.2309 O   0  0  0  0  0
   -8.4535    1.5336  -19.8928 O   0  0  0  0  0
   -9.4524   -0.8296  -20.9179 O   0  0  0  0  0
   -8.4406   -6.9906  -20.6541 O   0  0  0  0  0
   -2.6104   -7.4083  -15.3257 P   0  0  0  0  0
   -7.7536   -5.4546  -20.8436 P   0  0  0  0  0
   -9.4095    0.1767  -19.5577 P   0  0  0  0  0
  1 26  1  0  0  0
  2 21  1  0  0  0
 11  1  1  0  0  0
 11 12  1  0  0  0
 11 31  1  0  0  0
 12 13  1  0  0  0
 12 37  1  0  0  0
 13 14  1  0  0  0
 13 36  1  0  0  0
 14 31  1  0  0  0
 14 15  1  0  0  0
 15 32  1  0  0  0
 16 39  1  0  0  0
 17 16  1  0  0  0
 17 18  1  0  0  0
 17 40  1  0  0  0
 18 19  1  0  0  0
 18 42  1  0  0  0
 19 20  1  0  0  0
 19 41  1  0  0  0
 20  2  1  0  0  0
 20 40  1  0  0  0
 21  5  1  0  0  0
 22  3  1  0  0  0
 22 24  1  0  0  0
 23  2  1  0  0  0
 24  6  1  0  0  0
 25  4  1  0  0  0
 26  9  1  0  0  0
 27  7  1  0  0  0
 27 29  1  0  0  0
 28  1  1  0  0  0
 29 10  1  0  0  0
 30  8  1  0  0  0
 47 32  1  0  0  0
 47 34  1  0  0  0
 47 35  1  0  0  0
 48 37  1  0  0  0
 48 39  1  0  0  0
 48 46  1  0  0  0
 49 42  1  0  0  0
 49 44  1  0  0  0
 49 45  1  0  0  0
 21 22  2  0  0  0
 23  3  2  0  0  0
 24  4  2  0  0  0
 25  5  2  0  0  0
 26 27  2  0  0  0
 28  7  2  0  0  0
 29  8  2  0  0  0
 30  9  2  0  0  0
 47 33  2  0  0  0
 48 38  2  0  0  0
 49 43  2  0  0  0
M  END
> <rmsd>
0.710903347

$$$$
CHEMBL3558451 PubChem-118716827


 43 47  0  0  0  0  0  0  0  0999 V2000
   -5.7205   -0.1674  -18.1717 N   0  0  0  0  0
   -8.6533   -0.3572  -18.7141 N   0  0  0  0  0
   -5.7267   -6.3850  -18.8890 N   0  0  0  0  0
   -4.4162    0.4124  -18.0421 C   0  0  0  0  0
   -4.0214    1.1005  -16.8856 C   0  0  0  0  0
   -2.7405    1.6512  -16.7959 C   0  0  0  0  0
   -1.8459    1.5160  -17.8619 C   0  0  0  0  0
   -2.2270    0.8284  -19.0228 C   0  0  0  0  0
   -3.5134    0.2796  -19.1035 C   0  0  0  0  0
   -1.2884    0.6805  -20.1477 C   0  0  0  0  0
   -6.7767   -0.1389  -17.2008 C   0  0  0  0  0
   -8.0578   -0.8524  -17.4782 C   0  0  0  0  0
   -7.8072   -2.3415  -17.6237 C   0  0  0  0  0
   -8.2291   -2.6928  -19.0291 C   0  0  0  0  0
   -9.0991   -1.5330  -19.4491 C   0  0  0  0  0
   -6.1314   -4.2717  -19.3778 C   0  0  0  0  0
   -6.4580   -5.5184  -19.7149 C   0  0  0  0  0
   -4.5620   -7.2592  -19.1408 C   0  0  0  0  0
   -3.7759   -6.4678  -18.1384 C   0  0  0  0  0
   -3.2782   -7.3114  -16.9539 C   0  0  0  0  0
   -4.3142   -8.2732  -16.3759 C   0  0  0  0  0
   -4.9933   -5.7556  -17.8296 C   0  0  0  0  0
   -5.1173   -4.2597  -18.2427 C   0  0  0  0  0
   -3.8049   -3.6293  -18.6963 C   0  0  0  0  0
   -7.3584   -5.9785  -20.7844 C   0  0  0  0  0
   -8.4434   -7.8623  -21.9387 C   0  0  0  0  0
   -9.0944   -9.9174  -20.7378 C   0  0  0  0  0
   -9.1398  -11.4151  -20.7101 C   0  0  0  0  0
   -8.2906  -12.0093  -19.5794 C   0  0  0  0  0
   -8.9777  -11.8685  -18.2199 C   0  0  0  0  0
  -10.3640  -12.5022  -18.2580 C   0  0  0  0  0
  -11.2214  -11.8165  -19.3165 C   0  0  0  0  0
  -10.5739  -11.9581  -20.6959 C   0  0  0  0  0
   -0.1337    1.1815  -20.0876 O   0  0  0  0  0
   -1.6675   -0.0140  -21.2902 O   0  0  0  0  0
   -6.6381    0.4671  -16.1058 O   0  0  0  0  0
   -4.3142   -8.2137  -19.9228 O   0  0  0  0  0
   -2.1351   -8.0202  -17.3242 O   0  0  0  0  0
   -7.9530   -5.1517  -21.5281 O   0  0  0  0  0
   -7.5520   -7.3488  -20.9590 O   0  0  0  0  0
   -8.5117   -9.2788  -21.8347 O   0  0  0  0  0
   -9.5771   -9.2448  -19.7852 O   0  0  0  0  0
   -6.7760   -2.7720  -20.1293 S   0  0  0  0  0
  1  4  1  0  0  0
  1 11  1  0  0  0
  3 18  1  0  0  0
  5  6  1  0  0  0
  7  8  1  0  0  0
  8 10  1  0  0  0
  9  4  1  0  0  0
 10 35  1  0  0  0
 12 11  1  0  0  0
 12 13  1  0  0  0
 12  2  1  0  0  0
 13 14  1  0  0  0
 14 15  1  0  0  0
 14 43  1  0  0  0
 15  2  1  0  0  0
 16 43  1  0  0  0
 17  3  1  0  0  0
 17 25  1  0  0  0
 19 18  1  0  0  0
 19 20  1  0  0  0
 19 22  1  0  0  0
 20 38  1  0  0  0
 20 21  1  0  0  0
 22 23  1  0  0  0
 22  3  1  0  0  0
 23 24  1  0  0  0
 23 16  1  0  0  0
 25 40  1  0  0  0
 26 40  1  0  0  0
 26 41  1  0  0  0
 27 41  1  0  0  0
 28 27  1  0  0  0
 28 29  1  0  0  0
 29 30  1  0  0  0
 30 31  1  0  0  0
 31 32  1  0  0  0
 32 33  1  0  0  0
 33 28  1  0  0  0
  4  5  2  0  0  0
  6  7  2  0  0  0
  8  9  2  0  0  0
 10 34  2  0  0  0
 11 36  2  0  0  0
 16 17  2  0  0  0
 18 37  2  0  0  0
 25 39  2  0  0  0
 27 42  2  0  0  0
M  END
> <rmsd>
0.558720827

$$$$
CHEMBL264042 PubChem-467317


 44 49  0  0  0  0  0  0  0  0999 V2000
   -3.3327    0.2438  -18.1754 C   0  0  0  0  0
   -4.7732   -0.1004  -18.0819 C   0  0  0  0  0
   -5.3117   -1.1745  -18.8255 C   0  0  0  0  0
   -4.4407   -1.9803  -19.7575 C   0  0  0  0  0
   -5.0674   -4.3838  -19.8669 C   0  0  0  0  0
   -5.9144   -4.1610  -20.9709 C   0  0  0  0  0
   -6.0935   -2.7701  -21.5092 C   0  0  0  0  0
   -4.8617   -1.9103  -21.2356 C   0  0  0  0  0
   -6.6397   -5.2326  -21.5156 C   0  0  0  0  0
   -6.5024   -6.5148  -20.9751 C   0  0  0  0  0
   -5.6521   -6.7334  -19.8882 C   0  0  0  0  0
   -4.9371   -5.6692  -19.3346 C   0  0  0  0  0
   -6.6653   -1.5046  -18.6792 C   0  0  0  0  0
   -7.4881   -0.7745  -17.8229 C   0  0  0  0  0
   -6.9636    0.2975  -17.0948 C   0  0  0  0  0
   -5.6099    0.6341  -17.2191 C   0  0  0  0  0
   -2.3516   -0.5988  -17.6077 C   0  0  0  0  0
   -2.7457   -1.8597  -16.8940 C   0  0  0  0  0
   -2.1143   -4.2283  -16.7572 C   0  0  0  0  0
   -2.6233   -4.3106  -15.4441 C   0  0  0  0  0
   -3.1594   -3.0751  -14.7618 C   0  0  0  0  0
   -2.6099   -1.7822  -15.3711 C   0  0  0  0  0
   -2.6770   -5.5568  -14.8004 C   0  0  0  0  0
   -2.2080   -6.7009  -15.4533 C   0  0  0  0  0
   -1.6898   -6.6110  -16.7479 C   0  0  0  0  0
   -1.6417   -5.3760  -17.3984 C   0  0  0  0  0
   -0.9982   -0.2545  -17.7114 C   0  0  0  0  0
   -0.6112    0.9140  -18.3670 C   0  0  0  0  0
   -1.5780    1.7539  -18.9295 C   0  0  0  0  0
   -2.9356    1.4221  -18.8364 C   0  0  0  0  0
   -4.3363   -3.3321  -19.3042 O   0  0  0  0  0
   -5.0932   -0.5916  -21.6300 O   0  0  0  0  0
   -5.5187   -8.0086  -19.3569 O   0  0  0  0  0
   -7.4975   -5.0335  -22.5909 O   0  0  0  0  0
   -5.0963    1.6917  -16.4741 O   0  0  0  0  0
   -7.7858    1.0263  -16.2423 O   0  0  0  0  0
   -8.8281   -1.1192  -17.6991 O   0  0  0  0  0
   -2.0618   -2.9970  -17.4158 O   0  0  0  0  0
   -1.2724   -1.6199  -15.0007 O   0  0  0  0  0
   -1.2240   -7.7505  -17.3889 O   0  0  0  0  0
   -3.1929   -5.6678  -13.5145 O   0  0  0  0  0
   -3.8871    2.2609  -19.4092 O   0  0  0  0  0
   -1.1902    2.9183  -19.5834 O   0  0  0  0  0
    0.7370    1.2362  -18.4571 O   0  0  0  0  0
  1  2  1  0  0  0
  1 17  1  0  0  0
  2  3  1  0  0  0
  4  3  1  0  0  0
  4 31  1  0  0  0
  5 31  1  0  0  0
  6  9  1  0  0  0
  7  6  1  0  0  0
  7  8  1  0  0  0
  8 32  1  0  0  0
  8  4  1  0  0  0
  9 34  1  0  0  0
 10 11  1  0  0  0
 11 33  1  0  0  0
 12  5  1  0  0  0
 13 14  1  0  0  0
 14 37  1  0  0  0
 15 16  1  0  0  0
 15 36  1  0  0  0
 16 35  1  0  0  0
 18 17  1  0  0  0
 18 38  1  0  0  0
 19 38  1  0  0  0
 20 23  1  0  0  0
 21 20  1  0  0  0
 21 22  1  0  0  0
 22 39  1  0  0  0
 22 18  1  0  0  0
 23 41  1  0  0  0
 24 25  1  0  0  0
 25 40  1  0  0  0
 26 19  1  0  0  0
 27 28  1  0  0  0
 28 44  1  0  0  0
 29 30  1  0  0  0
 29 43  1  0  0  0
 30 42  1  0  0  0
  3 13  2  0  0  0
  5  6  2  0  0  0
  9 10  2  0  0  0
 11 12  2  0  0  0
 14 15  2  0  0  0
 16  2  2  0  0  0
 17 27  2  0  0  0
 19 20  2  0  0  0
 23 24  2  0  0  0
 25 26  2  0  0  0
 28 29  2  0  0  0
 30  1  2  0  0  0
M  END
> <rmsd>
0.867053628

$$$$
CHEMBL4302159 PubChem-145947781


 85 91  0  0  0  0  0  0  0  0999 V2000
   -1.4477   -7.1188  -19.4824 O   0  0  0  0  0
   -2.8071   -7.5521  -17.4795 O   0  0  0  0  0
   -4.0021   -7.6382  -19.8051 O   0  0  0  0  0
   -7.7846   -4.9577  -21.1894 O   0  0  0  0  0
  -11.5417   -8.0713  -17.0936 O   0  0  0  0  0
  -10.9423  -13.2514  -15.2214 O   0  0  0  0  0
   -9.9075  -16.9589  -10.5408 O   0  0  0  0  0
  -12.3916  -17.3595   -9.7891 O   0  0  0  0  0
  -10.9914  -19.3411  -10.2244 O   0  0  0  0  0
  -10.5345  -17.9811   -8.0674 O   0  0  0  0  0
   -9.4621  -18.8831  -12.5479 O   0  0  0  0  0
   -7.9563  -19.5687  -14.5889 O   0  0  0  0  0
  -10.2667  -20.4001  -14.5253 O   0  0  0  0  0
   -8.5357  -21.4603  -12.8983 O   0  0  0  0  0
  -11.9785  -10.3814  -12.6241 O   0  0  0  0  0
  -11.6390  -12.8971  -11.6472 O   0  0  0  0  0
  -13.8559  -14.2896  -11.8400 O   0  0  0  0  0
  -14.0480  -11.9635  -11.1066 O   0  0  0  0  0
  -13.0902  -13.6938   -9.4374 O   0  0  0  0  0
  -11.1680  -10.2207  -18.9323 O   0  0  0  0  0
   -9.2506  -11.7906  -19.7857 O   0  0  0  0  0
  -10.7120  -10.7748  -21.4558 O   0  0  0  0  0
  -11.6770  -12.7182  -20.0298 O   0  0  0  0  0
   -7.6331   -2.4260  -20.6246 O   0  0  0  0  0
   -4.0018   -2.9226  -18.9983 O   0  0  0  0  0
   -1.4366    2.6003  -16.9578 O   0  0  0  0  0
   -0.3241    4.0024  -15.0312 O   0  0  0  0  0
   -2.7402    3.5721  -14.8968 O   0  0  0  0  0
   -1.0944    1.6164  -14.3658 O   0  0  0  0  0
   -3.1362    3.0588  -19.0933 O   0  0  0  0  0
   -3.6558    2.7252  -21.6518 O   0  0  0  0  0
   -4.0886    4.9253  -20.6705 O   0  0  0  0  0
   -5.7164    2.9864  -20.0809 O   0  0  0  0  0
   -6.4047   -0.2488  -19.5658 O   0  0  0  0  0
   -8.6257   -0.7657  -18.2617 O   0  0  0  0  0
   -7.9661    1.5876  -18.4988 O   0  0  0  0  0
   -6.6433    0.1174  -16.8295 O   0  0  0  0  0
   -2.2028   -9.5632  -18.9971 O   0  0  0  0  0
   -2.5821   -7.9295  -18.9129 S   0  0  0  0  0
  -11.0032  -17.9398   -9.6820 S   0  0  0  0  0
   -9.0569  -20.0782  -13.6984 S   0  0  0  0  0
  -13.2073  -13.2012  -11.0342 S   0  0  0  0  0
  -10.6649  -11.3777  -20.0856 S   0  0  0  0  0
   -1.4048    2.9917  -15.2890 S   0  0  0  0  0
   -4.1356    3.4459  -20.4222 S   0  0  0  0  0
   -7.4587    0.1850  -18.2941 S   0  0  0  0  0
   -4.6124   -6.3826  -19.8891 C   0  0  0  0  0
   -3.9962   -5.2357  -19.3780 C   0  0  0  0  0
   -4.6234   -3.9940  -19.4718 C   0  0  0  0  0
   -5.9003   -3.8824  -20.0707 C   0  0  0  0  0
   -6.5226   -5.0428  -20.5888 C   0  0  0  0  0
   -8.5566   -6.0946  -21.5443 C   0  0  0  0  0
   -9.3407   -6.5688  -20.3620 C   0  0  0  0  0
  -10.6816   -6.1995  -20.1716 C   0  0  0  0  0
  -11.3842   -6.6946  -19.0681 C   0  0  0  0  0
  -10.7648   -7.5424  -18.1391 C   0  0  0  0  0
  -11.4888   -9.4093  -16.6632 C   0  0  0  0  0
  -11.2297  -10.4720  -17.5556 C   0  0  0  0  0
  -11.0511  -11.7706  -17.0532 C   0  0  0  0  0
  -11.1742  -12.0283  -15.6868 C   0  0  0  0  0
  -11.0374  -13.5757  -13.9310 C   0  0  0  0  0
  -10.6979  -14.9708  -13.5493 C   0  0  0  0  0
  -10.5143  -15.9332  -14.5533 C   0  0  0  0  0
  -10.1227  -17.2345  -14.2312 C   0  0  0  0  0
   -9.9079  -17.6010  -12.8917 C   0  0  0  0  0
  -10.1041  -16.6474  -11.8827 C   0  0  0  0  0
  -10.4719  -15.3434  -12.2192 C   0  0  0  0  0
  -11.4458  -12.5908  -12.9972 C   0  0  0  0  0
  -11.6730  -11.2862  -13.4492 C   0  0  0  0  0
  -11.5322  -10.9891  -14.8103 C   0  0  0  0  0
  -11.6834   -9.6841  -15.3040 C   0  0  0  0  0
   -9.3913   -7.8388  -18.2908 C   0  0  0  0  0
   -8.7054   -7.3655  -19.4080 C   0  0  0  0  0
   -8.6213   -8.6122  -17.2723 C   0  0  0  0  0
  -11.3829   -5.3045  -21.1354 C   0  0  0  0  0
   -5.8644   -6.2811  -20.4919 C   0  0  0  0  0
   -6.4933   -2.6036  -20.1139 C   0  0  0  0  0
   -5.8049   -1.5075  -19.5866 C   0  0  0  0  0
   -4.5213   -1.6996  -19.0435 C   0  0  0  0  0
   -3.7289   -0.5743  -18.4982 C   0  0  0  0  0
   -3.8159    0.7120  -19.0546 C   0  0  0  0  0
   -3.0519    1.7728  -18.5475 C   0  0  0  0  0
   -2.1987    1.5459  -17.4579 C   0  0  0  0  0
   -2.0965    0.2632  -16.9043 C   0  0  0  0  0
   -2.8503   -0.7927  -17.4214 C   0  0  0  0  0
 39  3  1  0  0  0
 39 38  1  0  0  0
 40  7  1  0  0  0
 40 10  1  0  0  0
 41 11  1  0  0  0
 41 14  1  0  0  0
 42 16  1  0  0  0
 42 19  1  0  0  0
 43 20  1  0  0  0
 43 23  1  0  0  0
 44 26  1  0  0  0
 44 29  1  0  0  0
 45 30  1  0  0  0
 45 33  1  0  0  0
 46 34  1  0  0  0
 46 37  1  0  0  0
 47  3  1  0  0  0
 48 49  1  0  0  0
 49 25  1  0  0  0
 50 51  1  0  0  0
 50 77  1  0  0  0
 51  4  1  0  0  0
 52  4  1  0  0  0
 52 53  1  0  0  0
 54 55  1  0  0  0
 56  5  1  0  0  0
 56 72  1  0  0  0
 57  5  1  0  0  0
 58 59  1  0  0  0
 58 20  1  0  0  0
 60  6  1  0  0  0
 61  6  1  0  0  0
 61 62  1  0  0  0
 63 64  1  0  0  0
 65 66  1  0  0  0
 65 11  1  0  0  0
 66  7  1  0  0  0
 67 62  1  0  0  0
 68 69  1  0  0  0
 68 16  1  0  0  0
 69 70  1  0  0  0
 70 60  1  0  0  0
 71 57  1  0  0  0
 73 53  1  0  0  0
 74 72  1  0  0  0
 75 54  1  0  0  0
 76 47  1  0  0  0
 77 78  1  0  0  0
 78 34  1  0  0  0
 79 25  1  0  0  0
 79 80  1  0  0  0
 81 82  1  0  0  0
 82 30  1  0  0  0
 83 84  1  0  0  0
 83 26  1  0  0  0
 85 80  1  0  0  0
 39  1  2  0  0  0
 39  2  2  0  0  0
 40  8  2  0  0  0
 40  9  2  0  0  0
 41 12  2  0  0  0
 41 13  2  0  0  0
 42 17  2  0  0  0
 42 18  2  0  0  0
 43 21  2  0  0  0
 43 22  2  0  0  0
 44 27  2  0  0  0
 44 28  2  0  0  0
 45 31  2  0  0  0
 45 32  2  0  0  0
 46 35  2  0  0  0
 46 36  2  0  0  0
 47 48  2  0  0  0
 49 50  2  0  0  0
 51 76  2  0  0  0
 53 54  2  0  0  0
 55 56  2  0  0  0
 57 58  2  0  0  0
 59 60  2  0  0  0
 61 68  2  0  0  0
 62 63  2  0  0  0
 64 65  2  0  0  0
 66 67  2  0  0  0
 69 15  2  0  0  0
 70 71  2  0  0  0
 72 73  2  0  0  0
 77 24  2  0  0  0
 78 79  2  0  0  0
 80 81  2  0  0  0
 82 83  2  0  0  0
 84 85  2  0  0  0
M  END
> <rmsd>
0.806420207

$$$$
CHEMBL1207542 PubChem-11665342


 72 77  0  0  0  0  0  0  0  0999 V2000
    5.1622    0.9551  -20.2838 C   0  0  0  0  0
    4.9573    3.1474  -20.0864 C   0  0  0  0  0
    4.8197    4.3244  -19.1787 C   0  0  0  0  0
    5.6891    5.4077  -19.3559 C   0  0  0  0  0
    5.5526    6.5588  -18.5785 C   0  0  0  0  0
    4.5462    6.6380  -17.6113 C   0  0  0  0  0
    4.4065    7.8507  -16.7849 C   0  0  0  0  0
    5.1220   10.2800  -16.4548 C   0  0  0  0  0
    5.2131   10.1687  -15.0613 C   0  0  0  0  0
    5.4222   11.2794  -14.2630 C   0  0  0  0  0
    5.5475   12.5451  -14.8368 C   0  0  0  0  0
    5.4458   12.6984  -16.2369 C   0  0  0  0  0
    5.5494   13.9779  -16.7955 C   0  0  0  0  0
    5.4536   14.1801  -18.1647 C   0  0  0  0  0
    5.2369   13.0939  -19.0016 C   0  0  0  0  0
    5.1214   11.7921  -18.4987 C   0  0  0  0  0
    5.2318   11.5620  -17.0799 C   0  0  0  0  0
    3.6764    5.5552  -17.4305 C   0  0  0  0  0
    3.7958    4.3973  -18.2136 C   0  0  0  0  0
    1.5323    3.3772  -17.6277 C   0  0  0  0  0
   -0.5734    1.9375  -17.7785 C   0  0  0  0  0
   -1.2876    0.9869  -17.0333 C   0  0  0  0  0
   -2.5925    0.6246  -17.3836 C   0  0  0  0  0
   -3.2579   -0.4829  -16.6754 C   0  0  0  0  0
   -4.4591   -2.6344  -17.3081 C   0  0  0  0  0
   -3.3984   -3.3933  -16.7877 C   0  0  0  0  0
   -3.3335   -4.7684  -16.9519 C   0  0  0  0  0
   -4.3207   -5.4376  -17.6677 C   0  0  0  0  0
   -5.4159   -4.7151  -18.1945 C   0  0  0  0  0
   -6.3846   -5.3910  -18.9486 C   0  0  0  0  0
   -7.4811   -4.7214  -19.4753 C   0  0  0  0  0
   -7.6454   -3.3610  -19.2113 C   0  0  0  0  0
   -6.7093   -2.6421  -18.4564 C   0  0  0  0  0
   -5.5317   -3.3000  -17.9768 C   0  0  0  0  0
   -3.1903    1.2198  -18.4976 C   0  0  0  0  0
   -2.4886    2.1582  -19.2591 C   0  0  0  0  0
   -1.1806    2.5191  -18.9172 C   0  0  0  0  0
   -0.4276    3.3855  -19.8761 C   0  0  0  0  0
    1.3633    3.3376  -21.1827 C   0  0  0  0  0
    5.1950    1.9918  -19.3480 O   0  0  0  0  0
    3.7324    7.8143  -15.7184 O   0  0  0  0  0
    4.7170   14.8784  -13.7844 O   0  0  0  0  0
    7.1348   14.6062  -14.1951 O   0  0  0  0  0
    6.0879   13.3644  -12.1809 O   0  0  0  0  0
    6.8367   16.4503  -18.3126 O   0  0  0  0  0
    4.3866   16.6131  -18.4350 O   0  0  0  0  0
    5.6601   15.7134  -20.5052 O   0  0  0  0  0
    5.9440    9.5823  -19.8041 O   0  0  0  0  0
    3.5206    9.8373  -19.4118 O   0  0  0  0  0
    4.6238   11.2981  -21.2331 O   0  0  0  0  0
    0.9606    4.4964  -17.5172 O   0  0  0  0  0
   -2.8247   -0.8646  -15.5489 O   0  0  0  0  0
   -5.3469   -7.9090  -17.3934 O   0  0  0  0  0
   -2.9188   -7.6789  -17.1813 O   0  0  0  0  0
   -3.9361   -7.4780  -19.5667 O   0  0  0  0  0
   -8.5069   -5.2580  -21.8778 O   0  0  0  0  0
  -10.0590   -5.2319  -19.9659 O   0  0  0  0  0
   -8.4540   -7.2501  -20.2137 O   0  0  0  0  0
   -8.6309   -0.7764  -18.3671 O   0  0  0  0  0
   -6.3576    0.0030  -18.8508 O   0  0  0  0  0
   -6.9452   -0.6929  -16.4086 O   0  0  0  0  0
    0.2463    2.5854  -20.8011 O   0  0  0  0  0
    5.0040    9.0771  -17.2246 N   0  0  0  0  0
    2.9059    3.2880  -18.0309 N   0  0  0  0  0
    0.7965    2.1662  -17.4269 N   0  0  0  0  0
   -4.3258   -1.1986  -17.3178 N   0  0  0  0  0
    5.8702   13.9101  -13.7588 S   0  0  0  0  0
    5.5864   15.7969  -18.8279 S   0  0  0  0  0
    4.8005   10.5592  -19.7265 S   0  0  0  0  0
   -4.1328   -7.1801  -17.9207 S   0  0  0  0  0
   -8.6740   -5.5969  -20.4231 S   0  0  0  0  0
   -7.1716   -0.9776  -18.0524 S   0  0  0  0  0
  1 40  1  0  0  0
  2 40  1  0  0  0
  2  3  1  0  0  0
  4  5  1  0  0  0
  6  7  1  0  0  0
  6 18  1  0  0  0
  7 63  1  0  0  0
  9 10  1  0  0  0
 11 12  1  0  0  0
 13 14  1  0  0  0
 15 16  1  0  0  0
 17  8  1  0  0  0
 17 12  1  0  0  0
 19 64  1  0  0  0
 19  3  1  0  0  0
 20 65  1  0  0  0
 22 23  1  0  0  0
 23 24  1  0  0  0
 24 66  1  0  0  0
 26 27  1  0  0  0
 28 29  1  0  0  0
 30 31  1  0  0  0
 32 33  1  0  0  0
 34 25  1  0  0  0
 34 29  1  0  0  0
 35 36  1  0  0  0
 37 21  1  0  0  0
 38 37  1  0  0  0
 38 62  1  0  0  0
 39 62  1  0  0  0
 63  8  1  0  0  0
 64 20  1  0  0  0
 65 21  1  0  0  0
 66 25  1  0  0  0
 67 11  1  0  0  0
 67 44  1  0  0  0
 68 14  1  0  0  0
 68 47  1  0  0  0
 69 16  1  0  0  0
 69 50  1  0  0  0
 70 28  1  0  0  0
 70 55  1  0  0  0
 71 31  1  0  0  0
 71 58  1  0  0  0
 72 33  1  0  0  0
 72 61  1  0  0  0
  3  4  2  0  0  0
  5  6  2  0  0  0
  7 41  2  0  0  0
  8  9  2  0  0  0
 10 11  2  0  0  0
 12 13  2  0  0  0
 14 15  2  0  0  0
 16 17  2  0  0  0
 18 19  2  0  0  0
 20 51  2  0  0  0
 21 22  2  0  0  0
 23 35  2  0  0  0
 24 52  2  0  0  0
 25 26  2  0  0  0
 27 28  2  0  0  0
 29 30  2  0  0  0
 31 32  2  0  0  0
 33 34  2  0  0  0
 36 37  2  0  0  0
 67 42  2  0  0  0
 67 43  2  0  0  0
 68 45  2  0  0  0
 68 46  2  0  0  0
 69 48  2  0  0  0
 69 49  2  0  0  0
 70 53  2  0  0  0
 70 54  2  0  0  0
 71 56  2  0  0  0
 71 57  2  0  0  0
 72 59  2  0  0  0
 72 60  2  0  0  0
M  END
> <rmsd>
0.813525081

$$$$
CHEMBL2059743 PubChem-70694795


 91102  0  0  0  0  0  0  0  0999 V2000
   -1.8637  -13.1527  -21.0987 P   0  0  0  0  0
   -6.8668   -6.5221  -22.3601 P   0  0  0  0  0
   -7.3804   -0.1520  -17.4106 P   0  0  0  0  0
   -9.5470    7.9028  -16.2985 P   0  0  0  0  0
   -2.6061  -13.1501  -22.4226 O   0  0  0  0  0
   -2.3799  -14.4572  -20.1592 O   0  0  0  0  0
   -0.2027  -13.2996  -21.3831 O   0  0  0  0  0
   -3.5331  -11.4405  -19.9730 O   0  0  0  0  0
   -5.4441   -9.7937  -21.7661 O   0  0  0  0  0
   -6.4708   -7.4830  -21.0131 O   0  0  0  0  0
   -8.0549   -7.1479  -23.0524 O   0  0  0  0  0
   -7.3119   -4.9786  -21.8172 O   0  0  0  0  0
   -8.0518   -3.5263  -19.0884 O   0  0  0  0  0
   -6.8067   -1.7202  -17.7366 O   0  0  0  0  0
   -8.4406    0.2424  -18.4185 O   0  0  0  0  0
   -8.0627   -0.1252  -15.8614 O   0  0  0  0  0
   -6.4501    2.2661  -16.9766 O   0  0  0  0  0
   -8.2077    4.4670  -15.9139 O   0  0  0  0  0
   -8.0993    7.0303  -16.1377 O   0  0  0  0  0
  -10.0784    8.2501  -14.9213 O   0  0  0  0  0
   -9.2695    9.3251  -17.1846 O   0  0  0  0  0
   -5.2933   10.2293  -15.8327 O   0  0  0  0  0
   -4.2714   11.5693  -17.7999 O   0  0  0  0  0
   -7.5827   11.3959  -18.2442 O   0  0  0  0  0
  -10.7118    6.9708  -17.0978 O   0  0  0  0  0
   -5.8573    5.5674  -18.2852 O   0  0  0  0  0
   -4.7628   -3.0758  -20.1152 O   0  0  0  0  0
   -5.5834   -6.4253  -23.4721 O   0  0  0  0  0
   -4.6427   -8.2253  -18.7238 O   0  0  0  0  0
   -2.1672  -11.6001  -20.2106 C   0  0  0  0  0
   -3.5910  -10.3403  -19.1150 C   0  0  0  0  0
   -4.7080   -9.3864  -19.5205 C   0  0  0  0  0
   -4.6170   -8.9892  -20.9745 C   0  0  0  0  0
   -5.0707   -7.5570  -20.9605 C   0  0  0  0  0
   -6.1220   -4.2649  -21.6631 C   0  0  0  0  0
   -5.9812   -3.7589  -20.2363 C   0  0  0  0  0
   -7.1155   -2.8355  -19.8633 C   0  0  0  0  0
   -6.4442   -1.7284  -19.0892 C   0  0  0  0  0
   -6.0148    1.0434  -17.4797 C   0  0  0  0  0
   -6.1311    3.2063  -17.9590 C   0  0  0  0  0
   -6.3379    4.6017  -17.3932 C   0  0  0  0  0
   -7.8051    4.8797  -17.1874 C   0  0  0  0  0
   -7.9024    6.3772  -17.3612 C   0  0  0  0  0
   -8.3920   10.0850  -16.4048 C   0  0  0  0  0
   -7.1965   10.4952  -17.2444 C   0  0  0  0  0
   -6.1685   11.1724  -16.3809 C   0  0  0  0  0
   -5.4770   12.1070  -17.3398 C   0  0  0  0  0
   -6.4475   12.1901  -18.5074 C   0  0  0  0  0
   -6.5798   14.3095  -19.8531 C   0  0  0  0  0
   -7.6730   15.5980  -18.5672 C   0  0  0  0  0
   -8.3612   16.6266  -17.9373 C   0  0  0  0  0
   -8.7446   15.1508  -16.0999 C   0  0  0  0  0
   -7.5420   14.4024  -17.9540 C   0  0  0  0  0
   -6.5381    6.7470  -17.9230 C   0  0  0  0  0
   -7.7621    8.0549  -19.7322 C   0  0  0  0  0
   -6.1619    9.1384  -20.6096 C   0  0  0  0  0
   -5.3224    9.9908  -21.3126 C   0  0  0  0  0
   -3.5068    9.1778  -19.9951 C   0  0  0  0  0
   -5.6586    8.3474  -19.6375 C   0  0  0  0  0
   -4.9664   -2.0225  -19.2073 C   0  0  0  0  0
   -4.4392   -0.1594  -20.8230 C   0  0  0  0  0
   -2.9768    0.9335  -19.7435 C   0  0  0  0  0
   -2.0590    1.8417  -19.2395 C   0  0  0  0  0
   -1.9054    0.4922  -17.2762 C   0  0  0  0  0
   -3.3252   -0.1437  -19.0113 C   0  0  0  0  0
   -4.6088   -7.1094  -19.5906 C   0  0  0  0  0
   -2.9022   -5.4577  -20.4163 C   0  0  0  0  0
   -1.1224   -6.0884  -19.4524 C   0  0  0  0  0
    0.1627   -6.2850  -18.9698 C   0  0  0  0  0
   -0.6619   -8.1550  -17.7424 C   0  0  0  0  0
   -2.1248   -6.9085  -19.0663 C   0  0  0  0  0
   -6.8491   13.5736  -18.7464 N   0  0  0  0  0
   -7.0720   15.5779  -19.7719 N   0  0  0  0  0
   -8.5124   17.9005  -18.5526 N   0  0  0  0  0
   -8.8854   16.3774  -16.6993 N   0  0  0  0  0
   -8.0605   14.1481  -16.7272 N   0  0  0  0  0
   -6.6457    7.6508  -19.0670 N   0  0  0  0  0
   -7.4928    8.9739  -20.7015 N   0  0  0  0  0
   -5.8190   10.8597  -22.3239 N   0  0  0  0  0
   -3.9953    9.9879  -20.9892 N   0  0  0  0  0
   -4.3455    8.3439  -19.3037 N   0  0  0  0  0
   -4.2546   -0.8410  -19.6633 N   0  0  0  0  0
   -3.6591    0.9540  -20.9048 N   0  0  0  0  0
   -1.6797    2.9974  -19.9773 N   0  0  0  0  0
   -1.5322    1.5978  -18.0022 N   0  0  0  0  0
   -2.8176   -0.3926  -17.7817 N   0  0  0  0  0
   -3.2629   -6.5362  -19.6727 N   0  0  0  0  0
   -1.5775   -5.1510  -20.3031 N   0  0  0  0  0
    1.2480   -5.4595  -19.3717 N   0  0  0  0  0
    0.3700   -7.3297  -18.1202 N   0  0  0  0  0
   -1.9277   -7.9427  -18.2165 N   0  0  0  0  0
  1  6  1  0  0  0
  1  7  1  0  0  0
  1 30  1  0  0  0
  2 10  1  0  0  0
  2 12  1  0  0  0
  2 28  1  0  0  0
  3 14  1  0  0  0
  3 16  1  0  0  0
  3 39  1  0  0  0
  4 19  1  0  0  0
  4 21  1  0  0  0
  4 25  1  0  0  0
 30  8  1  0  0  0
 31  8  1  0  0  0
 32 31  1  0  0  0
 32 33  1  0  0  0
 32 29  1  0  0  0
 33  9  1  0  0  0
 33 34  1  0  0  0
 34 10  1  0  0  0
 34 66  1  0  0  0
 35 12  1  0  0  0
 36 35  1  0  0  0
 36 37  1  0  0  0
 36 27  1  0  0  0
 37 13  1  0  0  0
 37 38  1  0  0  0
 38 14  1  0  0  0
 38 60  1  0  0  0
 39 17  1  0  0  0
 40 17  1  0  0  0
 41 40  1  0  0  0
 41 42  1  0  0  0
 41 26  1  0  0  0
 42 18  1  0  0  0
 42 43  1  0  0  0
 43 19  1  0  0  0
 43 54  1  0  0  0
 44 21  1  0  0  0
 45 44  1  0  0  0
 45 46  1  0  0  0
 45 24  1  0  0  0
 46 22  1  0  0  0
 46 47  1  0  0  0
 47 23  1  0  0  0
 47 48  1  0  0  0
 48 24  1  0  0  0
 48 72  1  0  0  0
 50 73  1  0  0  0
 51 74  1  0  0  0
 51 75  1  0  0  0
 52 76  1  0  0  0
 53 72  1  0  0  0
 53 50  1  0  0  0
 54 26  1  0  0  0
 54 77  1  0  0  0
 56 78  1  0  0  0
 57 79  1  0  0  0
 57 80  1  0  0  0
 58 81  1  0  0  0
 59 77  1  0  0  0
 59 56  1  0  0  0
 60 27  1  0  0  0
 60 82  1  0  0  0
 62 83  1  0  0  0
 63 84  1  0  0  0
 63 85  1  0  0  0
 64 86  1  0  0  0
 65 82  1  0  0  0
 65 62  1  0  0  0
 66 29  1  0  0  0
 66 87  1  0  0  0
 68 88  1  0  0  0
 69 89  1  0  0  0
 69 90  1  0  0  0
 70 91  1  0  0  0
 71 87  1  0  0  0
 71 68  1  0  0  0
 72 49  1  0  0  0
 77 55  1  0  0  0
 82 61  1  0  0  0
 87 67  1  0  0  0
  1  5  2  0  0  0
  2 11  2  0  0  0
  3 15  2  0  0  0
  4 20  2  0  0  0
 49 73  2  0  0  0
 50 51  2  0  0  0
 52 75  2  0  0  0
 53 76  2  0  0  0
 55 78  2  0  0  0
 56 57  2  0  0  0
 58 80  2  0  0  0
 59 81  2  0  0  0
 61 83  2  0  0  0
 62 63  2  0  0  0
 64 85  2  0  0  0
 65 86  2  0  0  0
 67 88  2  0  0  0
 68 69  2  0  0  0
 70 90  2  0  0  0
 71 91  2  0  0  0
M  END
> <rmsd>
0.763918281

$$$$
CHEMBL408795 PubChem-44452664


 51 55  0  0  0  0  0  0  0  0999 V2000
   -9.2424    0.2850  -26.2582 N   0  0  0  0  0
   -7.3020   -4.4347  -21.9536 N   0  0  0  0  0
   -6.3477   -5.5631  -18.7314 N   0  0  0  0  0
   -4.0846    0.0550  -18.4122 N   0  0  0  0  0
   -2.9674    1.6045  -19.8044 N   0  0  0  0  0
   -8.3518   -0.5649  -25.4879 C   0  0  0  0  0
   -8.8092   -0.6255  -24.0400 C   0  0  0  0  0
   -8.0591   -1.2160  -22.0183 C   0  0  0  0  0
   -7.3201   -2.5454  -20.3909 C   0  0  0  0  0
   -6.8330   -3.9734  -20.6586 C   0  0  0  0  0
   -7.2930   -4.9193  -19.5881 C   0  0  0  0  0
   -4.9094   -5.4837  -18.9509 C   0  0  0  0  0
   -4.1540   -5.6617  -17.6396 C   0  0  0  0  0
   -3.7266   -7.8641  -16.6136 C   0  0  0  0  0
   -4.2451   -9.0377  -15.8930 C   0  0  0  0  0
   -5.5966   -9.0959  -15.5308 C   0  0  0  0  0
   -6.0964  -10.2035  -14.8418 C   0  0  0  0  0
   -5.2538  -11.2740  -14.5030 C   0  0  0  0  0
   -5.7831  -12.4471  -13.7684 C   0  0  0  0  0
   -7.1406  -12.5154  -13.4148 C   0  0  0  0  0
   -7.6379  -13.6165  -12.7133 C   0  0  0  0  0
   -6.7837  -14.6608  -12.3546 C   0  0  0  0  0
   -5.4323  -14.6045  -12.6973 C   0  0  0  0  0
   -4.9344  -13.5032  -13.3988 C   0  0  0  0  0
   -3.8999  -11.2116  -14.8704 C   0  0  0  0  0
   -3.3996  -10.1034  -15.5593 C   0  0  0  0  0
   -4.4816   -6.4876  -19.9722 C   0  0  0  0  0
   -6.8032   -2.0464  -19.0375 C   0  0  0  0  0
   -5.2142   -0.8118  -18.0781 C   0  0  0  0  0
   -3.0459    0.0910  -17.5336 C   0  0  0  0  0
   -1.9390    0.9000  -17.7767 C   0  0  0  0  0
   -1.9227    1.6640  -18.9393 C   0  0  0  0  0
   -4.0420    0.8104  -19.5558 C   0  0  0  0  0
   -6.4827   -0.0100  -17.8597 C   0  0  0  0  0
   -7.5390   -0.8058  -18.5901 C   0  0  0  0  0
   -8.0833    0.2961  -21.9692 C   0  0  0  0  0
   -8.5592    0.6958  -23.3461 C   0  0  0  0  0
   -8.0917   -1.6222  -23.3626 O   0  0  0  0  0
   -6.8910   -1.6891  -21.4146 O   0  0  0  0  0
   -8.5231   -5.1261  -19.4178 O   0  0  0  0  0
   -4.5959   -6.8244  -16.9503 O   0  0  0  0  0
   -2.5052   -7.8001  -16.9259 O   0  0  0  0  0
   -3.9664   -6.0987  -21.0502 O   0  0  0  0  0
   -4.6643   -7.8457  -19.7477 O   0  0  0  0  0
   -5.4299   -1.7619  -19.0901 O   0  0  0  0  0
   -0.9412    2.4100  -19.1877 O   0  0  0  0  0
   -4.9897    0.7789  -20.3862 O   0  0  0  0  0
   -6.7436    0.0778  -16.4892 O   0  0  0  0  0
   -8.6063   -1.1597  -17.7589 O   0  0  0  0  0
   -8.9602    0.7182  -20.9654 O   0  0  0  0  0
   -9.7435    1.4377  -23.3016 O   0  0  0  0  0
  4 30  1  0  0  0
  5 33  1  0  0  0
  6  1  1  0  0  0
  7  6  1  0  0  0
  7 38  1  0  0  0
  8 38  1  0  0  0
  8 39  1  0  0  0
  8 36  1  0  0  0
  9 39  1  0  0  0
  9 10  1  0  0  0
  9 28  1  0  0  0
 10  2  1  0  0  0
 10 11  1  0  0  0
 11  3  1  0  0  0
 12  3  1  0  0  0
 12 13  1  0  0  0
 12 27  1  0  0  0
 13 41  1  0  0  0
 14 41  1  0  0  0
 14 15  1  0  0  0
 16 17  1  0  0  0
 18 19  1  0  0  0
 18 25  1  0  0  0
 20 21  1  0  0  0
 22 23  1  0  0  0
 24 19  1  0  0  0
 26 15  1  0  0  0
 27 44  1  0  0  0
 28 45  1  0  0  0
 29 45  1  0  0  0
 29  4  1  0  0  0
 29 34  1  0  0  0
 31 32  1  0  0  0
 32  5  1  0  0  0
 33  4  1  0  0  0
 34 48  1  0  0  0
 34 35  1  0  0  0
 35 49  1  0  0  0
 35 28  1  0  0  0
 36 50  1  0  0  0
 36 37  1  0  0  0
 37 51  1  0  0  0
 37  7  1  0  0  0
 11 40  2  0  0  0
 14 42  2  0  0  0
 15 16  2  0  0  0
 17 18  2  0  0  0
 19 20  2  0  0  0
 21 22  2  0  0  0
 23 24  2  0  0  0
 25 26  2  0  0  0
 27 43  2  0  0  0
 30 31  2  0  0  0
 32 46  2  0  0  0
 33 47  2  0  0  0
M  END
> <rmsd>
0.765505016

$$$$
CHEMBL443350 PubChem-44579357


 71 76  0  0  0  0  0  0  0  0999 V2000
   -0.0316  -16.2116  -13.4489 C   0  0  0  0  0
   -0.9131  -17.7233  -11.6213 C   0  0  0  0  0
   -1.5780  -18.1054  -12.9327 C   0  0  0  0  0
   -1.0339  -17.1963  -14.0615 C   0  0  0  0  0
   -0.5386  -19.3985  -14.5277 C   0  0  0  0  0
    1.0548  -15.7487  -14.4122 C   0  0  0  0  0
    0.4847  -14.7983  -15.4445 C   0  0  0  0  0
    1.5220  -14.5527  -16.5204 C   0  0  0  0  0
    0.9929  -13.5659  -17.5513 C   0  0  0  0  0
    1.1597  -12.1362  -17.1401 C   0  0  0  0  0
    0.7719   -9.6925  -17.6981 C   0  0  0  0  0
   -0.1715   -9.3032  -16.5651 C   0  0  0  0  0
   -1.6301   -9.5645  -16.9200 C   0  0  0  0  0
   -2.0823   -8.7067  -18.0530 C   0  0  0  0  0
   -2.8113   -8.5768  -20.4914 C   0  0  0  0  0
   -4.0366   -7.7349  -20.2865 C   0  0  0  0  0
   -5.3461   -5.6656  -20.9020 C   0  0  0  0  0
   -5.0006   -4.2221  -21.1299 C   0  0  0  0  0
   -5.4460   -2.0408  -22.3413 C   0  0  0  0  0
   -6.5942   -1.3469  -21.6160 C   0  0  0  0  0
   -7.3931   -2.3877  -19.4944 C   0  0  0  0  0
   -8.2975   -1.6294  -18.5831 C   0  0  0  0  0
   -8.9073   -0.9906  -16.2108 C   0  0  0  0  0
   -8.3168    0.3743  -16.1156 C   0  0  0  0  0
   -5.4527   -0.7716  -19.4369 C   0  0  0  0  0
   -4.6151    0.2708  -20.1134 C   0  0  0  0  0
   -2.3277   -0.7797  -20.3232 C   0  0  0  0  0
   -1.2444    0.2694  -18.8250 C   0  0  0  0  0
   -2.5083    0.7424  -18.8407 C   0  0  0  0  0
   -2.0378    2.2364  -17.1122 C   0  0  0  0  0
   -0.3230    0.7892  -17.9278 C   0  0  0  0  0
   -6.3648   -6.2013  -21.9050 C   0  0  0  0  0
   -2.9726   -9.5263  -21.6834 C   0  0  0  0  0
   -4.1708  -10.4221  -21.5738 C   0  0  0  0  0
   -5.2412  -10.2420  -22.4540 C   0  0  0  0  0
   -6.3777  -11.0485  -22.3505 C   0  0  0  0  0
   -6.4571  -12.0521  -21.3716 C   0  0  0  0  0
   -5.3740  -12.2283  -20.4951 C   0  0  0  0  0
   -4.2353  -11.4244  -20.5980 C   0  0  0  0  0
   -7.6706  -12.8931  -21.2098 C   0  0  0  0  0
   -8.7247  -13.0253  -22.2487 C   0  0  0  0  0
   -9.9650  -13.5872  -21.9052 C   0  0  0  0  0
  -10.9693  -13.7431  -22.8649 C   0  0  0  0  0
  -10.7403  -13.3473  -24.1850 C   0  0  0  0  0
   -9.5068  -12.7993  -24.5444 C   0  0  0  0  0
   -8.5037  -12.6432  -23.5824 C   0  0  0  0  0
    0.7047  -16.9921  -11.9920 S   0  0  0  0  0
   -0.3955  -18.0892  -15.0263 N   0  0  0  0  0
   -1.2126  -19.4702  -13.2909 N   0  0  0  0  0
    0.6640  -11.1133  -18.0048 N   0  0  0  0  0
   -2.4510   -9.3226  -19.2884 N   0  0  0  0  0
   -4.1354   -6.4712  -20.9534 N   0  0  0  0  0
   -5.5739   -3.4865  -22.2198 N   0  0  0  0  0
   -6.4653   -1.4859  -20.1694 N   0  0  0  0  0
   -8.1632   -1.7930  -17.1703 N   0  0  0  0  0
   -3.2078    0.1007  -19.7807 N   0  0  0  0  0
   -1.0910   -0.6970  -19.7510 N   0  0  0  0  0
   -2.9392    1.7165  -18.0023 N   0  0  0  0  0
   -0.7443    1.7753  -17.0803 N   0  0  0  0  0
    1.0197    0.3163  -17.8838 N   0  0  0  0  0
   -0.0898  -20.4117  -15.1246 O   0  0  0  0  0
    1.7374  -11.8318  -16.0611 O   0  0  0  0  0
   -2.1478   -7.4565  -17.9109 O   0  0  0  0  0
   -4.9775   -8.1481  -19.5513 O   0  0  0  0  0
   -4.2079   -3.6514  -20.3312 O   0  0  0  0  0
   -9.1582   -0.8423  -19.0629 O   0  0  0  0  0
   -7.2778    0.5630  -15.4302 O   0  0  0  0  0
   -8.8861    1.4276  -16.8191 O   0  0  0  0  0
   -5.2947   -0.9853  -18.2042 O   0  0  0  0  0
   -7.6275   -5.6771  -21.6263 O   0  0  0  0  0
   -7.8141  -13.5302  -20.1297 O   0  0  0  0  0
  1 47  1  0  0  0
  1  6  1  0  0  0
  2 47  1  0  0  0
  3  2  1  0  0  0
  3  4  1  0  0  0
  3 49  1  0  0  0
  4 48  1  0  0  0
  4  1  1  0  0  0
  5 49  1  0  0  0
  6  7  1  0  0  0
  7  8  1  0  0  0
  8  9  1  0  0  0
  9 10  1  0  0  0
 10 50  1  0  0  0
 11 50  1  0  0  0
 11 12  1  0  0  0
 12 13  1  0  0  0
 13 14  1  0  0  0
 14 51  1  0  0  0
 15 51  1  0  0  0
 15 16  1  0  0  0
 15 33  1  0  0  0
 16 52  1  0  0  0
 17 52  1  0  0  0
 17 18  1  0  0  0
 17 32  1  0  0  0
 18 53  1  0  0  0
 19 53  1  0  0  0
 19 20  1  0  0  0
 20 54  1  0  0  0
 21 54  1  0  0  0
 21 22  1  0  0  0
 22 55  1  0  0  0
 23 55  1  0  0  0
 23 24  1  0  0  0
 24 68  1  0  0  0
 26 25  1  0  0  0
 26 56  1  0  0  0
 28 57  1  0  0  0
 29 58  1  0  0  0
 29 56  1  0  0  0
 30 59  1  0  0  0
 31 60  1  0  0  0
 31 28  1  0  0  0
 32 70  1  0  0  0
 33 34  1  0  0  0
 35 36  1  0  0  0
 37 38  1  0  0  0
 37 40  1  0  0  0
 39 34  1  0  0  0
 40 41  1  0  0  0
 42 43  1  0  0  0
 44 45  1  0  0  0
 46 41  1  0  0  0
 48  5  1  0  0  0
 54 25  1  0  0  0
 56 27  1  0  0  0
  5 61  2  0  0  0
 10 62  2  0  0  0
 14 63  2  0  0  0
 16 64  2  0  0  0
 18 65  2  0  0  0
 22 66  2  0  0  0
 24 67  2  0  0  0
 25 69  2  0  0  0
 27 57  2  0  0  0
 28 29  2  0  0  0
 30 58  2  0  0  0
 31 59  2  0  0  0
 34 35  2  0  0  0
 36 37  2  0  0  0
 38 39  2  0  0  0
 40 71  2  0  0  0
 41 42  2  0  0  0
 43 44  2  0  0  0
 45 46  2  0  0  0
M  END
> <rmsd>
0.726958156

$$$$
CHEMBL2058185 PubChem-11542734


 90101  0  0  0  0  0  0  0  0999 V2000
   -6.4251   14.2248  -15.6724 C   0  0  0  0  0
   -5.1632   14.5868  -16.4369 C   0  0  0  0  0
   -4.1634   13.4456  -16.3636 C   0  0  0  0  0
   -3.1194   13.9757  -15.4249 C   0  0  0  0  0
   -3.2462   15.4627  -15.6221 C   0  0  0  0  0
   -3.2420   16.0707  -13.1651 C   0  0  0  0  0
   -1.6796   17.5097  -13.0993 C   0  0  0  0  0
   -0.7086   18.4512  -12.7812 C   0  0  0  0  0
   -0.0712   18.4710  -15.0807 C   0  0  0  0  0
   -1.8156   17.0916  -14.3744 C   0  0  0  0  0
   -7.2428   10.2042  -16.5664 C   0  0  0  0  0
   -7.8586    9.6857  -17.8404 C   0  0  0  0  0
   -7.8630    8.1923  -17.6460 C   0  0  0  0  0
   -7.6993    7.5013  -18.9866 C   0  0  0  0  0
   -5.7479    4.0263  -19.4074 C   0  0  0  0  0
   -6.8976    2.9635  -17.8199 C   0  0  0  0  0
   -8.2902    2.4932  -17.5243 C   0  0  0  0  0
   -8.0807    1.4947  -16.4076 C   0  0  0  0  0
   -9.1600    0.4172  -16.3715 C   0  0  0  0  0
   -6.7810   -3.1267  -17.6873 C   0  0  0  0  0
   -5.8655   -4.0014  -16.8630 C   0  0  0  0  0
   -4.5150   -3.8377  -17.5235 C   0  0  0  0  0
   -3.7606   -5.1595  -17.5427 C   0  0  0  0  0
   -5.8981   -2.6432  -18.8207 C   0  0  0  0  0
   -7.0068   -1.7581  -20.8939 C   0  0  0  0  0
   -7.5958   -3.5392  -21.8844 C   0  0  0  0  0
   -8.0872   -4.5266  -22.7238 C   0  0  0  0  0
   -7.2516   -6.1529  -21.1910 C   0  0  0  0  0
   -6.9652   -3.8817  -20.7419 C   0  0  0  0  0
   -6.0099    1.9226  -17.1241 C   0  0  0  0  0
   -5.1902    0.5169  -19.0759 C   0  0  0  0  0
   -3.0885    0.5770  -18.7679 C   0  0  0  0  0
   -1.7149    0.3949  -18.7604 C   0  0  0  0  0
   -1.6126    1.7905  -16.8242 C   0  0  0  0  0
   -3.6718    1.3458  -17.8225 C   0  0  0  0  0
   -6.5827    8.9705  -15.9615 C   0  0  0  0  0
   -4.3505   10.1815  -16.1871 C   0  0  0  0  0
   -3.0688    8.8665  -15.1295 C   0  0  0  0  0
   -2.0307    8.1950  -14.5063 C   0  0  0  0  0
   -3.5948    6.5134  -13.8617 C   0  0  0  0  0
   -4.3149    8.3525  -15.0997 C   0  0  0  0  0
   -3.6250   13.2326  -17.6371 O   0  0  0  0  0
   -1.8365   13.5283  -15.7510 O   0  0  0  0  0
   -4.5962   15.7525  -15.8790 O   0  0  0  0  0
   -7.0804   13.1596  -16.3010 O   0  0  0  0  0
   -8.6604   12.8132  -14.2322 O   0  0  0  0  0
   -6.2780   11.7647  -14.0295 O   0  0  0  0  0
   -8.2165   10.6945  -15.6884 O   0  0  0  0  0
   -7.6159    6.1177  -18.8006 O   0  0  0  0  0
   -7.2816    5.2809  -21.2674 O   0  0  0  0  0
   -5.3135    6.6984  -20.2785 O   0  0  0  0  0
   -6.7073    3.0263  -19.2081 O   0  0  0  0  0
   -9.2638   -0.2378  -17.6018 O   0  0  0  0  0
   -9.7096   -2.3646  -16.1073 O   0  0  0  0  0
   -9.3683   -2.7763  -18.6585 O   0  0  0  0  0
   -7.2506   -2.0235  -16.9628 O   0  0  0  0  0
   -4.4510   -6.1074  -18.3092 O   0  0  0  0  0
   -2.2759   -6.5149  -19.7373 O   0  0  0  0  0
   -2.4681   -7.8926  -17.5177 O   0  0  0  0  0
   -4.0341   -8.4477  -19.7127 O   0  0  0  0  0
   -4.6976   -3.3716  -18.8366 O   0  0  0  0  0
   -5.7998   -3.5985  -15.5269 O   0  0  0  0  0
   -6.8131    0.9193  -16.5574 O   0  0  0  0  0
   -9.0676    3.5616  -17.0765 O   0  0  0  0  0
   -6.7945    7.8565  -16.7974 O   0  0  0  0  0
   -9.1581   10.1606  -18.0332 O   0  0  0  0  0
   -2.7914   16.1828  -14.4416 N   0  0  0  0  0
   -2.5669   16.8839  -12.3030 N   0  0  0  0  0
   -0.5302   18.9037  -11.4430 N   0  0  0  0  0
    0.0880   18.9146  -13.7903 N   0  0  0  0  0
   -1.0335   17.5471  -15.3843 N   0  0  0  0  0
   -6.5841   -2.7732  -20.0984 N   0  0  0  0  0
   -7.6412   -2.2002  -22.0170 N   0  0  0  0  0
   -8.7592   -4.2038  -23.9358 N   0  0  0  0  0
   -7.8981   -5.8295  -22.3577 N   0  0  0  0  0
   -6.7776   -5.1708  -20.3649 N   0  0  0  0  0
   -4.9994    1.3245  -17.9941 N   0  0  0  0  0
   -4.0187    0.0420  -19.5885 N   0  0  0  0  0
   -1.0709   -0.4355  -19.7212 N   0  0  0  0  0
   -0.9956    1.0160  -17.7778 N   0  0  0  0  0
   -2.9696    1.9587  -16.8377 N   0  0  0  0  0
   -5.1463    9.1632  -15.7607 N   0  0  0  0  0
   -3.0504   10.0291  -15.8075 N   0  0  0  0  0
   -0.7082    8.7177  -14.5110 N   0  0  0  0  0
   -2.3181    7.0186  -13.8764 N   0  0  0  0  0
   -4.6132    7.1849  -14.4814 N   0  0  0  0  0
   -7.5817   12.1308  -15.0449 P   0  0  0  0  0
   -6.5333    5.5582  -19.9847 P   0  0  0  0  0
   -8.9129   -1.8735  -17.2989 P   0  0  0  0  0
   -3.2757   -7.2118  -18.8423 P   0  0  0  0  0
  1 45  1  0  0  0
  2  1  1  0  0  0
  2  3  1  0  0  0
  2 44  1  0  0  0
  3 42  1  0  0  0
  3  4  1  0  0  0
  4 43  1  0  0  0
  4  5  1  0  0  0
  5 44  1  0  0  0
  5 67  1  0  0  0
  7 68  1  0  0  0
  8 69  1  0  0  0
  8 70  1  0  0  0
  9 71  1  0  0  0
 10 67  1  0  0  0
 10  7  1  0  0  0
 11 48  1  0  0  0
 11 12  1  0  0  0
 12 13  1  0  0  0
 12 66  1  0  0  0
 13 14  1  0  0  0
 13 65  1  0  0  0
 14 49  1  0  0  0
 15 52  1  0  0  0
 16 52  1  0  0  0
 16 17  1  0  0  0
 17 18  1  0  0  0
 17 64  1  0  0  0
 18 19  1  0  0  0
 18 63  1  0  0  0
 19 53  1  0  0  0
 20 56  1  0  0  0
 20 21  1  0  0  0
 21 22  1  0  0  0
 21 62  1  0  0  0
 22 23  1  0  0  0
 22 61  1  0  0  0
 23 57  1  0  0  0
 24 61  1  0  0  0
 24 72  1  0  0  0
 24 20  1  0  0  0
 26 73  1  0  0  0
 27 74  1  0  0  0
 27 75  1  0  0  0
 28 76  1  0  0  0
 29 72  1  0  0  0
 29 26  1  0  0  0
 30 63  1  0  0  0
 30 77  1  0  0  0
 30 16  1  0  0  0
 32 78  1  0  0  0
 33 79  1  0  0  0
 33 80  1  0  0  0
 34 81  1  0  0  0
 35 77  1  0  0  0
 35 32  1  0  0  0
 36 65  1  0  0  0
 36 82  1  0  0  0
 36 11  1  0  0  0
 38 83  1  0  0  0
 39 84  1  0  0  0
 39 85  1  0  0  0
 40 86  1  0  0  0
 41 82  1  0  0  0
 41 38  1  0  0  0
 67  6  1  0  0  0
 72 25  1  0  0  0
 77 31  1  0  0  0
 82 37  1  0  0  0
 87 45  1  0  0  0
 87 47  1  0  0  0
 87 48  1  0  0  0
 88 49  1  0  0  0
 88 51  1  0  0  0
 88 15  1  0  0  0
 89 53  1  0  0  0
 89 55  1  0  0  0
 89 56  1  0  0  0
 90 57  1  0  0  0
 90 59  1  0  0  0
 90 60  1  0  0  0
  6 68  2  0  0  0
  7  8  2  0  0  0
  9 70  2  0  0  0
 10 71  2  0  0  0
 25 73  2  0  0  0
 26 27  2  0  0  0
 28 75  2  0  0  0
 29 76  2  0  0  0
 31 78  2  0  0  0
 32 33  2  0  0  0
 34 80  2  0  0  0
 35 81  2  0  0  0
 37 83  2  0  0  0
 38 39  2  0  0  0
 40 85  2  0  0  0
 41 86  2  0  0  0
 87 46  2  0  0  0
 88 50  2  0  0  0
 89 54  2  0  0  0
 90 58  2  0  0  0
M  END
> <rmsd>
0.687749803

$$$$
CHEMBL4079068 PubChem-137651024


132138  0  0  0  0  0  0  0  0999 V2000
   -9.3273   -6.0949  -21.0813 C   0  0  0  0  0
   -7.8987   -6.3179  -20.6954 C   0  0  0  0  0
   -6.6489   -5.1981  -22.5334 C   0  0  0  0  0
   -6.1356   -6.3236  -23.2174 C   0  0  0  0  0
   -5.7181   -6.1958  -24.5479 C   0  0  0  0  0
   -5.8056   -4.9699  -25.2247 C   0  0  0  0  0
   -6.3046   -3.8599  -24.5291 C   0  0  0  0  0
   -6.7175   -3.9639  -23.1986 C   0  0  0  0  0
   -7.3756   -2.7895  -22.5429 C   0  0  0  0  0
   -6.4355   -1.6502  -22.2842 C   0  0  0  0  0
   -5.8268   -1.0153  -23.3733 C   0  0  0  0  0
   -4.9930    0.0970  -23.1969 C   0  0  0  0  0
   -4.7770    0.5686  -21.8956 C   0  0  0  0  0
   -5.3721   -0.0510  -20.7940 C   0  0  0  0  0
   -6.2077   -1.1646  -20.9771 C   0  0  0  0  0
   -8.1745   -2.0631  -19.7519 C   0  0  0  0  0
   -8.9511   -0.7942  -19.6179 C   0  0  0  0  0
  -10.1295    1.0787  -20.8030 C   0  0  0  0  0
   -8.9029    1.8742  -21.2161 C   0  0  0  0  0
  -10.3092   -1.2465  -21.6976 C   0  0  0  0  0
  -11.3481   -2.1837  -21.0977 C   0  0  0  0  0
   -5.2576    0.5824  -19.4440 C   0  0  0  0  0
   -3.8463    0.6582  -18.9551 C   0  0  0  0  0
   -3.0111    1.6694  -19.4389 C   0  0  0  0  0
   -1.7184    1.8500  -18.9225 C   0  0  0  0  0
   -1.2728    0.9780  -17.9175 C   0  0  0  0  0
   -2.0974   -0.0372  -17.4214 C   0  0  0  0  0
   -3.3965   -0.2022  -17.9428 C   0  0  0  0  0
   -4.6373   -1.2730  -16.1007 C   0  0  0  0  0
   -5.7526   -0.3127  -15.8352 C   0  0  0  0  0
   -6.5681    2.0256  -15.3731 C   0  0  0  0  0
   -7.0601    2.3839  -16.7667 C   0  0  0  0  0
   -4.1436    1.4989  -15.1073 C   0  0  0  0  0
   -3.6953    0.9068  -13.7861 C   0  0  0  0  0
   -1.5761   -0.9196  -16.3304 C   0  0  0  0  0
   -0.6284   -1.9693  -16.8338 C   0  0  0  0  0
   -0.8422   -3.3391  -16.5647 C   0  0  0  0  0
    0.1064   -4.2837  -16.9915 C   0  0  0  0  0
    1.2592   -3.8620  -17.6593 C   0  0  0  0  0
    1.4682   -2.5108  -17.9643 C   0  0  0  0  0
    0.5314   -1.5725  -17.5098 C   0  0  0  0  0
    2.7520   -2.0636  -18.6317 C   0  0  0  0  0
    2.5689   -0.7529  -19.3832 C   0  0  0  0  0
    3.2435   -3.0973  -19.6355 C   0  0  0  0  0
    3.8204   -1.8707  -17.5740 C   0  0  0  0  0
   -0.0147   -5.7127  -16.5600 C   0  0  0  0  0
   -0.0517   -6.6749  -17.7057 C   0  0  0  0  0
   -1.2311   -7.3705  -18.0533 C   0  0  0  0  0
   -1.2019   -8.2819  -19.1219 C   0  0  0  0  0
   -2.4018   -9.1201  -19.4321 C   0  0  0  0  0
   -2.9353   -8.8874  -20.8111 C   0  0  0  0  0
   -2.1714   -9.2962  -21.9098 C   0  0  0  0  0
   -2.6400   -9.1442  -23.2216 C   0  0  0  0  0
   -3.8993   -8.5620  -23.4161 C   0  0  0  0  0
   -4.6785   -8.1466  -22.3324 C   0  0  0  0  0
   -6.0763   -7.6747  -22.5761 C   0  0  0  0  0
   -4.2036   -8.3065  -21.0213 C   0  0  0  0  0
   -5.3527   -8.7364  -18.8736 C   0  0  0  0  0
   -6.5163   -9.5893  -19.2671 C   0  0  0  0  0
   -7.4361  -11.6015  -20.4612 C   0  0  0  0  0
   -8.4087  -12.1136  -19.4156 C   0  0  0  0  0
   -5.0027  -11.5027  -19.9243 C   0  0  0  0  0
   -4.5102  -11.9315  -18.5555 C   0  0  0  0  0
   -1.7710   -9.5093  -24.4089 C   0  0  0  0  0
   -0.7298  -10.5590  -24.0505 C   0  0  0  0  0
   -1.0500   -8.2681  -24.8985 C   0  0  0  0  0
   -2.6069  -10.0686  -25.5497 C   0  0  0  0  0
   -0.0091   -8.5096  -19.8146 C   0  0  0  0  0
    1.1706   -7.8376  -19.4716 C   0  0  0  0  0
    1.1283   -6.9138  -18.4184 C   0  0  0  0  0
    2.4326   -8.0247  -20.2913 C   0  0  0  0  0
    3.6823   -7.7784  -19.4582 C   0  0  0  0  0
    2.4242   -7.0432  -21.4474 C   0  0  0  0  0
    2.5302   -9.4350  -20.8515 C   0  0  0  0  0
   -2.5274   -7.2359  -15.9429 C   0  0  0  0  0
   -2.4394   -8.6559  -15.4922 C   0  0  0  0  0
   -0.9930  -10.6345  -14.9198 C   0  0  0  0  0
   -0.8402  -11.2141  -16.3209 C   0  0  0  0  0
   -0.1652   -8.3068  -14.4781 C   0  0  0  0  0
   -0.0751   -8.3906  -12.9619 C   0  0  0  0  0
   -2.3555   -3.2683  -14.6043 C   0  0  0  0  0
   -1.4616   -3.8145  -13.5362 C   0  0  0  0  0
   -1.0322   -1.5038  -12.6404 C   0  0  0  0  0
    0.2551   -0.7133  -12.8298 C   0  0  0  0  0
    0.0650   -3.4926  -11.5660 C   0  0  0  0  0
    1.3686   -4.0145  -12.1465 C   0  0  0  0  0
   -0.7902    2.8945  -19.5122 C   0  0  0  0  0
   -1.5627    4.1064  -20.0106 C   0  0  0  0  0
   -0.0355    2.2879  -20.6796 C   0  0  0  0  0
    0.2222    3.3895  -18.4884 C   0  0  0  0  0
   -4.2798    0.7167  -24.3840 C   0  0  0  0  0
   -3.8010    2.1323  -24.0927 C   0  0  0  0  0
   -3.0733   -0.1314  -24.7395 C   0  0  0  0  0
   -5.1978    0.7878  -25.5933 C   0  0  0  0  0
   -5.2836   -4.8260  -26.6418 C   0  0  0  0  0
   -3.8051   -4.4947  -26.5965 C   0  0  0  0  0
   -5.4709   -6.1107  -27.4355 C   0  0  0  0  0
   -6.0037   -3.7178  -27.3959 C   0  0  0  0  0
   -9.5769   -8.5041  -21.7765 C   0  0  0  0  0
   -9.6218   -8.9068  -23.2439 C   0  0  0  0  0
  -11.5432   -6.9390  -21.9270 C   0  0  0  0  0
  -12.3810   -6.7848  -20.6697 C   0  0  0  0  0
   -9.8267   -4.9471  -20.9278 O   0  0  0  0  0
   -7.0840   -5.2667  -21.2017 O   0  0  0  0  0
   -6.7881   -1.7611  -19.8478 O   0  0  0  0  0
   -8.8082   -0.0983  -18.5757 O   0  0  0  0  0
   -9.2289    3.2267  -21.2907 O   0  0  0  0  0
  -12.4784   -1.4592  -20.7159 O   0  0  0  0  0
   -4.2551   -1.1988  -17.4664 O   0  0  0  0  0
   -6.9383   -0.6988  -16.0214 O   0  0  0  0  0
   -6.0690    3.0857  -17.4555 O   0  0  0  0  0
   -2.4216    1.3802  -13.4766 O   0  0  0  0  0
   -5.0032   -7.8815  -19.9544 O   0  0  0  0  0
   -7.6789   -9.1083  -19.1648 O   0  0  0  0  0
   -9.4937  -12.7164  -20.0491 O   0  0  0  0  0
   -3.2143  -12.4303  -18.6656 O   0  0  0  0  0
   -2.4346   -7.1828  -17.3606 O   0  0  0  0  0
   -3.4461   -9.4040  -15.6365 O   0  0  0  0  0
    0.2957  -10.6889  -16.9346 O   0  0  0  0  0
   -1.2511   -7.9154  -12.3827 O   0  0  0  0  0
   -1.9751   -3.7872  -15.8729 O   0  0  0  0  0
   -1.3287   -5.0657  -13.4362 O   0  0  0  0  0
    0.7969   -0.9800  -14.0869 O   0  0  0  0  0
    2.1647   -4.5194  -11.1205 O   0  0  0  0  0
   -8.8262   -8.0486  -24.0050 O   0  0  0  0  0
  -13.6973   -6.4904  -21.0269 O   0  0  0  0  0
   -9.7947   -0.3318  -20.6852 N   0  0  0  0  0
   -5.4897    1.0464  -15.4404 N   0  0  0  0  0
   -6.3275  -10.9023  -19.8251 N   0  0  0  0  0
   -1.2071   -9.1920  -14.9852 N   0  0  0  0  0
   -0.7706   -2.9406  -12.6278 N   0  0  0  0  0
  -10.1423   -7.1727  -21.5757 N   0  0  0  0  0
  1132  1  0  0  0
  2  1  1  0  0  0
  2104  1  0  0  0
  3104  1  0  0  0
  4  5  1  0  0  0
  6  7  1  0  0  0
  8  3  1  0  0  0
  9  8  1  0  0  0
  9 10  1  0  0  0
 11 12  1  0  0  0
 13 14  1  0  0  0
 15105  1  0  0  0
 15 10  1  0  0  0
 16105  1  0  0  0
 16 17  1  0  0  0
 17127  1  0  0  0
 18127  1  0  0  0
 18 19  1  0  0  0
 19107  1  0  0  0
 20127  1  0  0  0
 20 21  1  0  0  0
 21108  1  0  0  0
 22 14  1  0  0  0
 22 23  1  0  0  0
 24 25  1  0  0  0
 26 27  1  0  0  0
 28109  1  0  0  0
 28 23  1  0  0  0
 29109  1  0  0  0
 29 30  1  0  0  0
 30128  1  0  0  0
 31128  1  0  0  0
 31 32  1  0  0  0
 32111  1  0  0  0
 33128  1  0  0  0
 33 34  1  0  0  0
 34112  1  0  0  0
 35 27  1  0  0  0
 35 36  1  0  0  0
 37 38  1  0  0  0
 37121  1  0  0  0
 39 40  1  0  0  0
 41 36  1  0  0  0
 42 40  1  0  0  0
 42 43  1  0  0  0
 42 44  1  0  0  0
 42 45  1  0  0  0
 46 38  1  0  0  0
 46 47  1  0  0  0
 48 49  1  0  0  0
 48117  1  0  0  0
 50 49  1  0  0  0
 50 51  1  0  0  0
 52 53  1  0  0  0
 54 55  1  0  0  0
 56 55  1  0  0  0
 56  4  1  0  0  0
 57113  1  0  0  0
 57 51  1  0  0  0
 58113  1  0  0  0
 58 59  1  0  0  0
 59129  1  0  0  0
 60129  1  0  0  0
 60 61  1  0  0  0
 61115  1  0  0  0
 62129  1  0  0  0
 62 63  1  0  0  0
 63116  1  0  0  0
 64 53  1  0  0  0
 64 65  1  0  0  0
 64 66  1  0  0  0
 64 67  1  0  0  0
 68 69  1  0  0  0
 70 47  1  0  0  0
 71 69  1  0  0  0
 71 72  1  0  0  0
 71 73  1  0  0  0
 71 74  1  0  0  0
 75117  1  0  0  0
 75 76  1  0  0  0
 76130  1  0  0  0
 77130  1  0  0  0
 77 78  1  0  0  0
 78119  1  0  0  0
 79130  1  0  0  0
 79 80  1  0  0  0
 80120  1  0  0  0
 81121  1  0  0  0
 81 82  1  0  0  0
 82131  1  0  0  0
 83131  1  0  0  0
 83 84  1  0  0  0
 84123  1  0  0  0
 85131  1  0  0  0
 85 86  1  0  0  0
 86124  1  0  0  0
 87 25  1  0  0  0
 87 88  1  0  0  0
 87 89  1  0  0  0
 87 90  1  0  0  0
 91 12  1  0  0  0
 91 92  1  0  0  0
 91 93  1  0  0  0
 91 94  1  0  0  0
 95  6  1  0  0  0
 95 96  1  0  0  0
 95 97  1  0  0  0
 95 98  1  0  0  0
 99132  1  0  0  0
 99100  1  0  0  0
100125  1  0  0  0
101132  1  0  0  0
101102  1  0  0  0
102126  1  0  0  0
  1103  2  0  0  0
  3  4  2  0  0  0
  5  6  2  0  0  0
  7  8  2  0  0  0
 10 11  2  0  0  0
 12 13  2  0  0  0
 14 15  2  0  0  0
 17106  2  0  0  0
 23 24  2  0  0  0
 25 26  2  0  0  0
 27 28  2  0  0  0
 30110  2  0  0  0
 36 37  2  0  0  0
 38 39  2  0  0  0
 40 41  2  0  0  0
 47 48  2  0  0  0
 49 68  2  0  0  0
 51 52  2  0  0  0
 53 54  2  0  0  0
 55 57  2  0  0  0
 59114  2  0  0  0
 69 70  2  0  0  0
 76118  2  0  0  0
 82122  2  0  0  0
M  END
> <rmsd>
0.771040678

$$$$
CHEMBL266016


 95 99  0  0  0  0  0  0  0  0999 V2000
  -13.2951   -4.0954  -18.8893 C   0  0  0  0  0
  -13.5262   -2.6251  -19.2011 C   0  0  0  0  0
  -12.6441   -2.1903  -20.3559 C   0  0  0  0  0
  -10.2118   -2.8447  -20.4541 C   0  0  0  0  0
   -8.8028   -2.6180  -20.0220 C   0  0  0  0  0
   -8.3376   -1.2196  -20.4103 C   0  0  0  0  0
   -6.9073   -1.8280  -22.4439 C   0  0  0  0  0
   -8.0380   -2.5143  -23.1447 C   0  0  0  0  0
   -8.6846   -1.5754  -24.1525 C   0  0  0  0  0
  -10.1985   -1.7211  -24.1257 C   0  0  0  0  0
  -10.6302   -3.0150  -24.7908 C   0  0  0  0  0
  -12.7798   -4.3087  -25.1370 C   0  0  0  0  0
   -7.6238   -5.0060  -23.2193 C   0  0  0  0  0
   -7.0777   -6.1786  -23.9707 C   0  0  0  0  0
   -8.0661   -6.6993  -25.0239 C   0  0  0  0  0
   -9.2324   -7.4418  -24.4419 C   0  0  0  0  0
  -10.2479   -6.7616  -23.7577 C   0  0  0  0  0
  -11.3397   -7.4653  -23.2385 C   0  0  0  0  0
  -11.4157   -8.8539  -23.3990 C   0  0  0  0  0
  -10.4040   -9.5331  -24.0862 C   0  0  0  0  0
   -9.3166   -8.8275  -24.6086 C   0  0  0  0  0
   -5.8097   -8.3107  -23.4677 C   0  0  0  0  0
   -5.6800   -9.5355  -22.6216 C   0  0  0  0  0
   -6.9923  -10.3002  -22.6406 C   0  0  0  0  0
   -7.6807   -9.9938  -21.3179 C   0  0  0  0  0
   -6.5843   -9.5192  -20.3867 C   0  0  0  0  0
   -4.1915   -8.7943  -20.6467 C   0  0  0  0  0
   -2.8870   -8.7639  -21.4072 C   0  0  0  0  0
   -2.8021   -9.7746  -22.5470 C   0  0  0  0  0
   -1.4035  -10.0269  -22.9990 C   0  0  0  0  0
   -0.7854  -11.2365  -22.6622 C   0  0  0  0  0
    0.5037  -11.5169  -23.1278 C   0  0  0  0  0
    1.1711  -10.5966  -23.9465 C   0  0  0  0  0
    0.5506   -9.3900  -24.2915 C   0  0  0  0  0
   -0.7392   -9.1042  -23.8232 C   0  0  0  0  0
   -1.6947   -6.5479  -21.1466 C   0  0  0  0  0
   -0.9819   -7.0243  -19.9107 C   0  0  0  0  0
    0.5137   -7.1815  -20.1714 C   0  0  0  0  0
    0.8243   -8.5238  -20.8115 C   0  0  0  0  0
    2.2621   -8.5275  -21.2875 C   0  0  0  0  0
    0.6381   -9.6475  -19.8069 C   0  0  0  0  0
   -1.7080   -6.4967  -17.5584 C   0  0  0  0  0
   -1.6060   -5.5841  -16.3769 C   0  0  0  0  0
   -0.5930   -6.1394  -15.3811 C   0  0  0  0  0
    0.8292   -5.8702  -15.8468 C   0  0  0  0  0
    1.8147   -6.5656  -14.9123 C   0  0  0  0  0
   -3.2283   -4.4431  -14.7871 C   0  0  0  0  0
   -2.3180   -3.2568  -14.5896 C   0  0  0  0  0
   -1.8953   -3.1076  -13.1249 C   0  0  0  0  0
   -1.0126   -1.8880  -12.9418 C   0  0  0  0  0
   -1.1299   -4.3271  -12.6431 C   0  0  0  0  0
   -3.3151   -1.7902  -16.4059 C   0  0  0  0  0
   -4.1760   -0.6265  -16.7674 C   0  0  0  0  0
   -3.4807    0.6880  -16.4337 C   0  0  0  0  0
   -2.4124    0.9943  -17.4311 C   0  0  0  0  0
   -1.0737    0.9911  -17.0346 C   0  0  0  0  0
   -0.0669    1.2795  -17.9608 C   0  0  0  0  0
   -0.3972    1.5710  -19.2857 C   0  0  0  0  0
   -1.7348    1.5717  -19.6864 C   0  0  0  0  0
   -2.7430    1.2814  -18.7624 C   0  0  0  0  0
   -6.6151    0.0138  -16.4345 C   0  0  0  0  0
   -6.5936    0.9337  -17.6241 C   0  0  0  0  0
   -7.5117    2.1392  -17.4582 C   0  0  0  0  0
   -6.8102    3.2286  -16.6574 C   0  0  0  0  0
   -6.3727    4.3551  -17.5849 C   0  0  0  0  0
   -5.0720    4.0089  -18.2882 C   0  0  0  0  0
   -8.1756   -0.3753  -19.1749 C   0  0  0  0  0
  -11.2662   -2.0499  -19.9080 N   0  0  0  0  0
   -7.0703   -1.2821  -21.1327 N   0  0  0  0  0
  -12.0667   -3.1802  -24.6257 N   0  0  0  0  0
  -12.1726   -5.2151  -25.8303 N   0  0  0  0  0
  -14.1818   -4.4121  -24.9192 N   0  0  0  0  0
   -7.5598   -3.7123  -23.8194 N   0  0  0  0  0
   -6.6621   -7.2403  -23.0577 N   0  0  0  0  0
   -5.4516   -9.1938  -21.2280 N   0  0  0  0  0
   -2.5891   -7.4117  -21.8616 N   0  0  0  0  0
   -1.1715   -6.0818  -18.8170 N   0  0  0  0  0
    1.8420   -5.8951  -13.6227 N   0  0  0  0  0
   -2.9091   -5.4700  -15.7271 N   0  0  0  0  0
   -3.0081   -2.0494  -15.0333 N   0  0  0  0  0
   -5.4465   -0.7204  -16.0592 N   0  0  0  0  0
   -3.9515    4.2220  -17.3852 N   0  0  0  0  0
   -6.9024    0.2011  -18.8475 N   0  0  0  0  0
  -10.4635   -3.7594  -21.2762 O   0  0  0  0  0
   -5.8031   -1.6884  -23.0305 O   0  0  0  0  0
   -8.1725   -5.1624  -22.0978 O   0  0  0  0  0
   -5.2089   -8.2578  -24.5725 O   0  0  0  0  0
   -4.1684   -8.4381  -19.4379 O   0  0  0  0  0
   -1.4925   -5.3795  -21.5756 O   0  0  0  0  0
   -2.2209   -7.6420  -17.4312 O   0  0  0  0  0
   -4.3165   -4.5104  -14.1543 O   0  0  0  0  0
   -2.8646   -2.5370  -17.3161 O   0  0  0  0  0
    0.6035    1.8655  -20.2030 O   0  0  0  0  0
   -7.6854   -0.1726  -15.7969 O   0  0  0  0  0
   -9.1711   -0.1714  -18.4248 O   0  0  0  0  0
  1  2  1  0  0  0
  2  3  1  0  0  0
  3 68  1  0  0  0
  5  4  1  0  0  0
  6  5  1  0  0  0
  6 69  1  0  0  0
  6 67  1  0  0  0
  8  7  1  0  0  0
  8  9  1  0  0  0
  8 73  1  0  0  0
  9 10  1  0  0  0
 10 11  1  0  0  0
 11 70  1  0  0  0
 12 72  1  0  0  0
 14 13  1  0  0  0
 14 15  1  0  0  0
 14 74  1  0  0  0
 15 16  1  0  0  0
 17 18  1  0  0  0
 19 20  1  0  0  0
 21 16  1  0  0  0
 23 22  1  0  0  0
 23 24  1  0  0  0
 23 75  1  0  0  0
 24 25  1  0  0  0
 25 26  1  0  0  0
 26 75  1  0  0  0
 28 27  1  0  0  0
 28 29  1  0  0  0
 28 76  1  0  0  0
 29 30  1  0  0  0
 31 32  1  0  0  0
 33 34  1  0  0  0
 35 30  1  0  0  0
 37 36  1  0  0  0
 37 38  1  0  0  0
 37 77  1  0  0  0
 38 39  1  0  0  0
 39 40  1  0  0  0
 39 41  1  0  0  0
 43 42  1  0  0  0
 43 44  1  0  0  0
 43 79  1  0  0  0
 44 45  1  0  0  0
 45 46  1  0  0  0
 46 78  1  0  0  0
 48 47  1  0  0  0
 48 49  1  0  0  0
 48 80  1  0  0  0
 49 50  1  0  0  0
 49 51  1  0  0  0
 53 52  1  0  0  0
 53 54  1  0  0  0
 53 81  1  0  0  0
 54 55  1  0  0  0
 56 57  1  0  0  0
 58 93  1  0  0  0
 58 59  1  0  0  0
 60 55  1  0  0  0
 62 61  1  0  0  0
 62 63  1  0  0  0
 62 83  1  0  0  0
 63 64  1  0  0  0
 64 65  1  0  0  0
 65 66  1  0  0  0
 66 82  1  0  0  0
 68  4  1  0  0  0
 69  7  1  0  0  0
 70 12  1  0  0  0
 73 13  1  0  0  0
 74 22  1  0  0  0
 75 27  1  0  0  0
 76 36  1  0  0  0
 77 42  1  0  0  0
 79 47  1  0  0  0
 80 52  1  0  0  0
 81 61  1  0  0  0
 83 67  1  0  0  0
  4 84  2  0  0  0
  7 85  2  0  0  0
 12 71  2  0  0  0
 13 86  2  0  0  0
 16 17  2  0  0  0
 18 19  2  0  0  0
 20 21  2  0  0  0
 22 87  2  0  0  0
 27 88  2  0  0  0
 30 31  2  0  0  0
 32 33  2  0  0  0
 34 35  2  0  0  0
 36 89  2  0  0  0
 42 90  2  0  0  0
 47 91  2  0  0  0
 52 92  2  0  0  0
 55 56  2  0  0  0
 57 58  2  0  0  0
 59 60  2  0  0  0
 61 94  2  0  0  0
 67 95  2  0  0  0
M  END
> <rmsd>
0.614856243

$$$$
CHEMBL1784892


 37 39  0  0  0  0  0  0  0  0999 V2000
   -4.1009   -0.0490  -19.9024 O   0  0  0  0  0
    0.0220    2.3809  -19.5498 O   0  0  0  0  0
   -5.1752   -1.7622  -17.9169 O   0  0  0  0  0
   -5.9824   -4.2303  -19.0437 O   0  0  0  0  0
   -8.3235   -5.3609  -18.7356 O   0  0  0  0  0
   -7.4385   -5.2481  -21.1866 O   0  0  0  0  0
   -6.3627   -6.9837  -19.2966 O   0  0  0  0  0
   -4.2789   -8.4049  -19.9898 O   0  0  0  0  0
   -5.0613   -6.6519  -21.7306 O   0  0  0  0  0
   -3.7703   -5.8815  -19.4197 O   0  0  0  0  0
   -2.7315   -7.6393  -17.7410 O   0  0  0  0  0
   -4.9267   -6.4549  -16.9331 O   0  0  0  0  0
   -2.5328   -5.1250  -17.0792 O   0  0  0  0  0
   -8.5430   -0.8360  -17.9826 O   0  0  0  0  0
   -7.0556    0.9029  -16.7993 O   0  0  0  0  0
   -3.4737    0.4093  -18.9094 C   0  0  0  0  0
   -1.5993    1.5927  -18.0723 C   0  0  0  0  0
    1.2603    3.0445  -19.7502 C   0  0  0  0  0
    2.3819    2.2172  -19.2227 C   0  0  0  0  0
    2.9128    1.1803  -19.9986 C   0  0  0  0  0
    3.9421    0.3826  -19.4899 C   0  0  0  0  0
    4.4379    0.6175  -18.2032 C   0  0  0  0  0
    3.9033    1.6494  -17.4245 C   0  0  0  0  0
    2.8742    2.4470  -17.9334 C   0  0  0  0  0
   -2.0714    1.4380  -16.7721 C   0  0  0  0  0
   -3.2667    0.7489  -16.5777 C   0  0  0  0  0
   -5.1968   -0.4768  -17.3485 C   0  0  0  0  0
   -6.5170   -2.0732  -18.1866 C   0  0  0  0  0
   -6.6047   -3.0232  -19.3662 C   0  0  0  0  0
   -7.2485   -0.7919  -18.5085 C   0  0  0  0  0
   -6.4015    0.2827  -17.8676 C   0  0  0  0  0
   -2.3085    1.0789  -19.1125 N   0  0  0  0  0
   -0.4841    2.2163  -18.2788 N   0  0  0  0  0
   -3.9533    0.2393  -17.6360 N   0  0  0  0  0
   -7.0516   -5.4482  -19.5494 P   0  0  0  0  0
   -4.8562   -7.0107  -20.0899 P   0  0  0  0  0
   -3.4788   -6.3252  -17.8011 P   0  0  0  0  0
 16 32  1  0  0  0
 17 25  1  0  0  0
 18  2  1  0  0  0
 18 19  1  0  0  0
 20 21  1  0  0  0
 22 23  1  0  0  0
 24 19  1  0  0  0
 26 34  1  0  0  0
 27 34  1  0  0  0
 27  3  1  0  0  0
 28  3  1  0  0  0
 28 29  1  0  0  0
 28 30  1  0  0  0
 29  4  1  0  0  0
 30 14  1  0  0  0
 30 31  1  0  0  0
 31 15  1  0  0  0
 31 27  1  0  0  0
 32 17  1  0  0  0
 33  2  1  0  0  0
 34 16  1  0  0  0
 35  4  1  0  0  0
 35  6  1  0  0  0
 35  7  1  0  0  0
 36  7  1  0  0  0
 36  9  1  0  0  0
 36 10  1  0  0  0
 37 10  1  0  0  0
 37 12  1  0  0  0
 37 13  1  0  0  0
 16  1  2  0  0  0
 17 33  2  0  0  0
 19 20  2  0  0  0
 21 22  2  0  0  0
 23 24  2  0  0  0
 25 26  2  0  0  0
 35  5  2  0  0  0
 36  8  2  0  0  0
 37 11  2  0  0  0
M  END
> <rmsd>
0.741662383

$$$$
CHEMBL2059855 PubChem-70696848


 91102  0  0  0  0  0  0  0  0999 V2000
   -4.1733   -8.2553  -17.9142 P   0  0  0  0  0
   -7.7102   -0.8476  -16.6978 P   0  0  0  0  0
   -5.9117    5.5206  -20.5809 P   0  0  0  0  0
   -8.8550  -15.5476  -16.4976 P   0  0  0  0  0
   -2.7670   -7.8359  -17.5441 O   0  0  0  0  0
   -5.2932   -7.1604  -17.2518 O   0  0  0  0  0
   -6.5523   -2.0806  -16.8541 O   0  0  0  0  0
   -7.2304    0.1676  -15.6815 O   0  0  0  0  0
   -9.1645   -1.5153  -16.1471 O   0  0  0  0  0
   -7.9757   -0.1087  -18.2062 O   0  0  0  0  0
   -5.6535    3.8503  -20.5227 O   0  0  0  0  0
   -7.1113    5.8927  -19.7403 O   0  0  0  0  0
   -6.1767    6.0149  -22.1792 O   0  0  0  0  0
   -4.5465    6.3158  -19.9817 O   0  0  0  0  0
   -5.9782    1.0622  -20.6146 O   0  0  0  0  0
   -8.7370    2.2951  -18.7852 O   0  0  0  0  0
   -7.6740   -5.2733  -18.0707 O   0  0  0  0  0
   -4.7091   -4.8063  -16.3369 O   0  0  0  0  0
   -4.7473   -9.8739  -15.8768 O   0  0  0  0  0
   -8.6382  -11.2630  -15.1515 O   0  0  0  0  0
   -7.7572  -14.2625  -16.7147 O   0  0  0  0  0
   -9.5979  -15.7618  -17.7969 O   0  0  0  0  0
   -9.7407  -15.9841  -14.0400 O   0  0  0  0  0
  -12.4149  -19.1349  -14.2823 O   0  0  0  0  0
   -9.6678  -21.1109  -15.2433 O   0  0  0  0  0
   -9.7433  -18.8885  -12.8828 O   0  0  0  0  0
   -7.9867  -16.9565  -16.1511 O   0  0  0  0  0
   -5.9274  -12.3476  -14.6847 O   0  0  0  0  0
   -4.3139   -8.3290  -19.6022 O   0  0  0  0  0
   -5.4449   -6.1398  -18.1945 C   0  0  0  0  0
   -5.3898   -4.7796  -17.5544 C   0  0  0  0  0
   -6.8393   -4.4055  -17.3401 C   0  0  0  0  0
   -7.0847   -2.9706  -17.7889 C   0  0  0  0  0
   -6.9015    0.7716  -18.4102 C   0  0  0  0  0
   -7.3706    2.0806  -18.9937 C   0  0  0  0  0
   -7.0788    1.9257  -20.4700 C   0  0  0  0  0
   -6.7825    3.2720  -21.1087 C   0  0  0  0  0
   -5.9915    0.2100  -19.4914 C   0  0  0  0  0
   -3.9828   -1.1314  -18.8003 C   0  0  0  0  0
   -2.6027    0.3838  -18.2281 C   0  0  0  0  0
   -1.5197    1.1576  -17.8316 C   0  0  0  0  0
   -2.8434    3.0948  -18.2573 C   0  0  0  0  0
   -3.7533    0.9794  -18.6115 C   0  0  0  0  0
   -6.8555   -6.1984  -18.7465 C   0  0  0  0  0
   -8.0341   -6.1936  -20.9546 C   0  0  0  0  0
   -6.5366   -5.5543  -22.3148 C   0  0  0  0  0
   -5.7663   -5.1756  -23.4029 C   0  0  0  0  0
   -3.9410   -4.8396  -21.9036 C   0  0  0  0  0
   -6.0000   -5.5721  -21.0748 C   0  0  0  0  0
   -4.4932   -9.9236  -17.2602 C   0  0  0  0  0
   -6.1117  -10.1561  -15.7302 C   0  0  0  0  0
   -6.3770  -11.6602  -15.8204 C   0  0  0  0  0
   -7.8367  -12.0014  -16.0263 C   0  0  0  0  0
   -7.8591  -13.4376  -15.5937 C   0  0  0  0  0
  -10.0894  -15.2622  -15.1827 C   0  0  0  0  0
  -10.7457  -16.9482  -13.9214 C   0  0  0  0  0
  -10.1557  -18.3379  -14.1073 C   0  0  0  0  0
  -11.1153  -19.2970  -14.7768 C   0  0  0  0  0
  -10.5934  -20.6211  -14.3147 C   0  0  0  0  0
   -9.8650  -20.2911  -13.0184 C   0  0  0  0  0
  -10.9911  -20.2074  -10.7440 C   0  0  0  0  0
  -11.5823  -22.2362  -10.4844 C   0  0  0  0  0
  -12.0933  -23.4608  -10.0750 C   0  0  0  0  0
  -11.3146  -24.3922  -12.1292 C   0  0  0  0  0
  -10.9513  -22.1296  -11.6751 C   0  0  0  0  0
   -6.6033  -13.5825  -14.7443 C   0  0  0  0  0
   -7.6654  -13.3760  -12.4545 C   0  0  0  0  0
   -7.3816  -15.3458  -11.7010 C   0  0  0  0  0
   -7.4330  -16.5598  -11.0304 C   0  0  0  0  0
   -6.3063  -17.5449  -12.8893 C   0  0  0  0  0
   -6.8011  -15.2706  -12.9164 C   0  0  0  0  0
   -4.6377    0.0421  -18.9767 N   0  0  0  0  0
   -2.7142   -0.9550  -18.3308 N   0  0  0  0  0
   -0.2935    0.5668  -17.4189 N   0  0  0  0  0
   -1.6642    2.5132  -17.8596 N   0  0  0  0  0
   -3.9047    2.3244  -18.6388 N   0  0  0  0  0
   -6.9331   -5.9694  -20.1919 N   0  0  0  0  0
   -7.8215   -5.9446  -22.2787 N   0  0  0  0  0
   -6.2903   -5.1729  -24.7250 N   0  0  0  0  0
   -4.4677   -4.8170  -23.1711 N   0  0  0  0  0
   -4.7119   -5.2223  -20.8379 N   0  0  0  0  0
  -10.5776  -20.8566  -11.8706 N   0  0  0  0  0
  -11.6157  -21.0424   -9.8637 N   0  0  0  0  0
  -12.7660  -23.6112   -8.8292 N   0  0  0  0  0
  -11.9549  -24.5235  -10.9206 N   0  0  0  0  0
  -10.8043  -23.1819  -12.5188 N   0  0  0  0  0
   -6.9606  -14.0379  -13.4097 N   0  0  0  0  0
   -7.9430  -14.1633  -11.3774 N   0  0  0  0  0
   -8.0613  -16.6803   -9.7588 N   0  0  0  0  0
   -6.8846  -17.6480  -11.6469 N   0  0  0  0  0
   -6.2679  -16.3453  -13.5415 N   0  0  0  0  0
  1  6  1  0  0  0
  1 50  1  0  0  0
  1 29  1  0  0  0
  2  7  1  0  0  0
  2  9  1  0  0  0
  2 10  1  0  0  0
  3 11  1  0  0  0
  3 13  1  0  0  0
  3 14  1  0  0  0
  4 21  1  0  0  0
  4 55  1  0  0  0
  4 27  1  0  0  0
 30  6  1  0  0  0
 30 31  1  0  0  0
 31 32  1  0  0  0
 31 18  1  0  0  0
 32 33  1  0  0  0
 32 17  1  0  0  0
 33  7  1  0  0  0
 34 10  1  0  0  0
 34 35  1  0  0  0
 35 36  1  0  0  0
 35 16  1  0  0  0
 36 37  1  0  0  0
 36 15  1  0  0  0
 37 11  1  0  0  0
 38 15  1  0  0  0
 38 72  1  0  0  0
 38 34  1  0  0  0
 40 73  1  0  0  0
 41 74  1  0  0  0
 41 75  1  0  0  0
 42 76  1  0  0  0
 43 72  1  0  0  0
 43 40  1  0  0  0
 44 17  1  0  0  0
 44 77  1  0  0  0
 44 30  1  0  0  0
 46 78  1  0  0  0
 47 79  1  0  0  0
 47 80  1  0  0  0
 48 81  1  0  0  0
 49 77  1  0  0  0
 49 46  1  0  0  0
 50 19  1  0  0  0
 51 19  1  0  0  0
 52 51  1  0  0  0
 52 53  1  0  0  0
 52 28  1  0  0  0
 53 20  1  0  0  0
 53 54  1  0  0  0
 54 21  1  0  0  0
 54 66  1  0  0  0
 55 23  1  0  0  0
 56 23  1  0  0  0
 57 56  1  0  0  0
 57 58  1  0  0  0
 57 26  1  0  0  0
 58 24  1  0  0  0
 58 59  1  0  0  0
 59 25  1  0  0  0
 59 60  1  0  0  0
 60 26  1  0  0  0
 60 82  1  0  0  0
 62 83  1  0  0  0
 63 84  1  0  0  0
 63 85  1  0  0  0
 64 86  1  0  0  0
 65 82  1  0  0  0
 65 62  1  0  0  0
 66 28  1  0  0  0
 66 87  1  0  0  0
 68 88  1  0  0  0
 69 89  1  0  0  0
 69 90  1  0  0  0
 70 91  1  0  0  0
 71 87  1  0  0  0
 71 68  1  0  0  0
 72 39  1  0  0  0
 77 45  1  0  0  0
 82 61  1  0  0  0
 87 67  1  0  0  0
  1  5  2  0  0  0
  2  8  2  0  0  0
  3 12  2  0  0  0
  4 22  2  0  0  0
 39 73  2  0  0  0
 40 41  2  0  0  0
 42 75  2  0  0  0
 43 76  2  0  0  0
 45 78  2  0  0  0
 46 47  2  0  0  0
 48 80  2  0  0  0
 49 81  2  0  0  0
 61 83  2  0  0  0
 62 63  2  0  0  0
 64 85  2  0  0  0
 65 86  2  0  0  0
 67 88  2  0  0  0
 68 69  2  0  0  0
 70 90  2  0  0  0
 71 91  2  0  0  0
M  END
> <rmsd>
0.728524506

$$$$
CHEMBL1207772 PubChem-44344972


124131  0  0  0  0  0  0  0  0999 V2000
    0.8104  -27.0870  -23.7065 C   0  0  0  0  0
   -0.4953  -25.0127  -24.0326 C   0  0  0  0  0
   -1.5349  -24.1877  -23.5958 C   0  0  0  0  0
   -1.8110  -22.9878  -24.2534 C   0  0  0  0  0
   -1.0469  -22.6061  -25.3644 C   0  0  0  0  0
   -1.2928  -21.2930  -26.0318 C   0  0  0  0  0
    0.3232  -19.8960  -24.7752 C   0  0  0  0  0
    0.5220  -18.9017  -23.7117 C   0  0  0  0  0
    1.6866  -18.4966  -23.1784 C   0  0  0  0  0
    2.9960  -19.0315  -23.6476 C   0  0  0  0  0
    0.5344  -16.8575  -21.7073 C   0  0  0  0  0
   -1.2188  -15.5334  -22.3486 C   0  0  0  0  0
   -2.2208  -16.6698  -22.5693 C   0  0  0  0  0
   -1.3516  -14.8992  -20.9495 C   0  0  0  0  0
   -3.1393  -13.5905  -20.5659 C   0  0  0  0  0
   -3.5061  -11.8850  -18.9315 C   0  0  0  0  0
   -2.4260  -10.9113  -19.2990 C   0  0  0  0  0
   -0.9637   -9.8944  -20.9937 C   0  0  0  0  0
   -0.6124  -10.1359  -22.4174 C   0  0  0  0  0
    0.2797  -11.1618  -22.7413 C   0  0  0  0  0
    0.5755  -11.4314  -24.0830 C   0  0  0  0  0
   -0.0232  -10.6736  -25.0977 C   0  0  0  0  0
    1.1594  -11.9262  -26.8830 C   0  0  0  0  0
   -0.9185   -9.6552  -24.7701 C   0  0  0  0  0
   -1.2147   -9.3862  -23.4293 C   0  0  0  0  0
   -4.9036  -11.5631  -19.4773 C   0  0  0  0  0
   -5.1090   -9.4045  -20.2578 C   0  0  0  0  0
   -3.7903   -7.6742  -20.8511 C   0  0  0  0  0
   -2.6235   -6.7976  -20.4261 C   0  0  0  0  0
   -4.8764   -6.9057  -21.6310 C   0  0  0  0  0
   -5.5720   -4.8063  -21.9034 C   0  0  0  0  0
   -4.6526   -2.8482  -20.9212 C   0  0  0  0  0
   -3.8243   -3.0348  -19.6955 C   0  0  0  0  0
   -1.8485   -2.1952  -18.4621 C   0  0  0  0  0
   -2.1708   -0.7914  -18.0603 C   0  0  0  0  0
   -3.2254   -0.5402  -17.1740 C   0  0  0  0  0
   -3.6423    0.7726  -16.9279 C   0  0  0  0  0
   -3.0081    1.8475  -17.5673 C   0  0  0  0  0
   -4.6343    3.5066  -16.7063 C   0  0  0  0  0
   -1.9283    1.5930  -18.4236 C   0  0  0  0  0
   -1.5161    0.2775  -18.6752 C   0  0  0  0  0
   -6.0384   -2.2497  -20.6681 C   0  0  0  0  0
   -7.0003   -0.1763  -20.7691 C   0  0  0  0  0
   -6.8457    2.1082  -21.5299 C   0  0  0  0  0
   -7.7675    3.1022  -20.8238 C   0  0  0  0  0
   -5.3593    2.1409  -21.0586 C   0  0  0  0  0
   -5.0337    1.1504  -19.9430 C   0  0  0  0  0
   -6.2787    0.4003  -19.5247 C   0  0  0  0  0
   -7.1711   -3.2606  -20.7119 C   0  0  0  0  0
   -6.9848   -4.1935  -21.9011 C   0  0  0  0  0
   -6.0032   -7.8662  -22.0336 C   0  0  0  0  0
   -6.3830   -8.8158  -20.8793 C   0  0  0  0  0
   -5.3000  -12.2382  -20.7868 C   0  0  0  0  0
   -4.0493  -12.7592  -21.4950 C   0  0  0  0  0
   -0.0321  -14.9071  -20.1387 C   0  0  0  0  0
    0.8184  -16.1573  -20.3821 C   0  0  0  0  0
   -0.0142  -23.4310  -25.8134 C   0  0  0  0  0
    0.2614  -24.6325  -25.1551 C   0  0  0  0  0
   -0.2381  -26.2011  -23.3402 O   0  0  0  0  0
   -0.9816  -20.2246  -25.1390 O   0  0  0  0  0
    1.3020  -20.4651  -25.3376 O   0  0  0  0  0
    3.5605  -18.1482  -24.5666 O   0  0  0  0  0
    1.7049  -17.5275  -22.1651 O   0  0  0  0  0
    0.1030  -15.9275  -22.6725 O   0  0  0  0  0
   -3.5272  -16.1956  -22.4583 O   0  0  0  0  0
   -4.3380  -18.5454  -23.2812 O   0  0  0  0  0
   -3.9589  -16.7960  -24.9720 O   0  0  0  0  0
   -6.0525  -16.6068  -23.4445 O   0  0  0  0  0
   -1.8303  -13.5878  -21.0622 O   0  0  0  0  0
   -3.1392  -13.2313  -19.1832 O   0  0  0  0  0
   -1.8480  -10.2702  -18.3806 O   0  0  0  0  0
   -2.0347  -10.7475  -20.6279 O   0  0  0  0  0
    0.2255  -10.9450  -26.4555 O   0  0  0  0  0
   -5.4359  -10.2827  -19.2081 O   0  0  0  0  0
   -4.3313   -8.3554  -19.7455 O   0  0  0  0  0
   -3.0033   -5.9581  -19.3767 O   0  0  0  0  0
   -2.1075   -7.5923  -17.5462 O   0  0  0  0  0
   -0.4866   -6.1082  -18.6487 O   0  0  0  0  0
   -2.1312   -5.0754  -16.9267 O   0  0  0  0  0
   -5.3828   -5.8010  -20.9234 O   0  0  0  0  0
   -4.5182   -3.8602  -21.9081 O   0  0  0  0  0
   -4.3032   -3.6064  -18.6745 O   0  0  0  0  0
   -2.5298   -2.5028  -19.6769 O   0  0  0  0  0
   -3.4314    3.1678  -17.3839 O   0  0  0  0  0
   -6.2513   -1.1330  -21.4932 O   0  0  0  0  0
   -7.4611    0.8255  -21.6684 O   0  0  0  0  0
   -7.9059    2.7860  -19.4707 O   0  0  0  0  0
  -10.4405    3.4155  -19.3993 O   0  0  0  0  0
   -8.8033    5.2431  -19.2520 O   0  0  0  0  0
   -9.1075    3.7145  -17.1878 O   0  0  0  0  0
   -4.9794    3.4291  -20.6568 O   0  0  0  0  0
   -4.0448    0.2628  -20.3856 O   0  0  0  0  0
   -8.5745   -0.7877  -17.8862 O   0  0  0  0  0
   -6.9488   -1.4276  -16.1661 O   0  0  0  0  0
   -7.2639    1.0982  -16.6705 O   0  0  0  0  0
   -7.2055   -3.9859  -19.5190 O   0  0  0  0  0
   -7.9652   -5.2003  -21.8971 O   0  0  0  0  0
   -9.9182   -3.4488  -21.8748 O   0  0  0  0  0
   -8.9591   -4.0512  -24.0499 O   0  0  0  0  0
  -10.4771   -5.7808  -22.8593 O   0  0  0  0  0
   -5.6073   -8.5913  -23.1593 O   0  0  0  0  0
   -9.8203  -10.4295  -21.6557 O   0  0  0  0  0
   -8.9704   -8.3590  -22.6656 O   0  0  0  0  0
   -9.2800   -8.4289  -20.0776 O   0  0  0  0  0
   -6.1692  -13.2967  -20.5104 O   0  0  0  0  0
   -4.4044  -13.5043  -22.6241 O   0  0  0  0  0
   -2.2712  -13.0588  -24.0642 O   0  0  0  0  0
   -4.4267  -13.1947  -25.2033 O   0  0  0  0  0
   -3.9231  -11.0564  -23.8263 O   0  0  0  0  0
    0.7373  -13.7785  -20.4493 O   0  0  0  0  0
   -1.7338  -16.9135  -18.6923 O   0  0  0  0  0
   -0.4692  -18.7815  -17.7419 O   0  0  0  0  0
   -1.0218  -18.8542  -20.2737 O   0  0  0  0  0
   -4.4421  -17.0741  -23.5716 S   0  0  0  0  0
   -1.8945   -6.2264  -18.1323 S   0  0  0  0  0
   -9.0912    3.8181  -18.8670 S   0  0  0  0  0
   -7.2359   -0.4659  -17.2871 S   0  0  0  0  0
   -9.3242   -4.5696  -22.6826 S   0  0  0  0  0
   -8.8740   -9.2712  -21.4803 S   0  0  0  0  0
   -3.7319  -12.7200  -23.9563 S   0  0  0  0  0
   -0.6241  -17.8968  -18.9511 S   0  0  0  0  0
   -5.9978   -0.5859  -18.4944 N   0  0  0  0  0
   -7.2571   -9.8867  -21.3547 N   0  0  0  0  0
    0.8742  -17.0617  -19.2317 N   0  0  0  0  0
  1 59  1  0  0  0
  2 59  1  0  0  0
  3  4  1  0  0  0
  5 57  1  0  0  0
  6  5  1  0  0  0
  6 60  1  0  0  0
  7 60  1  0  0  0
  7  8  1  0  0  0
  9 63  1  0  0  0
 10  9  1  0  0  0
 10 62  1  0  0  0
 11 63  1  0  0  0
 11 64  1  0  0  0
 12 64  1  0  0  0
 12 13  1  0  0  0
 12 14  1  0  0  0
 13 65  1  0  0  0
 14 69  1  0  0  0
 14 55  1  0  0  0
 15 69  1  0  0  0
 15 70  1  0  0  0
 16 70  1  0  0  0
 16 17  1  0  0  0
 16 26  1  0  0  0
 17 72  1  0  0  0
 18 72  1  0  0  0
 18 19  1  0  0  0
 20 21  1  0  0  0
 22 73  1  0  0  0
 22 24  1  0  0  0
 23 73  1  0  0  0
 25 19  1  0  0  0
 26 74  1  0  0  0
 26 53  1  0  0  0
 27 74  1  0  0  0
 27 75  1  0  0  0
 28 75  1  0  0  0
 28 29  1  0  0  0
 28 30  1  0  0  0
 29 76  1  0  0  0
 30 80  1  0  0  0
 30 51  1  0  0  0
 31 80  1  0  0  0
 31 81  1  0  0  0
 32 81  1  0  0  0
 32 33  1  0  0  0
 32 42  1  0  0  0
 33 83  1  0  0  0
 34 83  1  0  0  0
 34 35  1  0  0  0
 36 37  1  0  0  0
 38 84  1  0  0  0
 38 40  1  0  0  0
 39 84  1  0  0  0
 41 35  1  0  0  0
 42 85  1  0  0  0
 42 49  1  0  0  0
 43 85  1  0  0  0
 43 86  1  0  0  0
 44 86  1  0  0  0
 44 45  1  0  0  0
 44 46  1  0  0  0
 45 87  1  0  0  0
 46 91  1  0  0  0
 46 47  1  0  0  0
 47 92  1  0  0  0
 47 48  1  0  0  0
 48122  1  0  0  0
 48 43  1  0  0  0
 49 96  1  0  0  0
 49 50  1  0  0  0
 50 97  1  0  0  0
 50 31  1  0  0  0
 51101  1  0  0  0
 51 52  1  0  0  0
 52123  1  0  0  0
 52 27  1  0  0  0
 53105  1  0  0  0
 53 54  1  0  0  0
 54106  1  0  0  0
 54 15  1  0  0  0
 55110  1  0  0  0
 55 56  1  0  0  0
 56124  1  0  0  0
 56 11  1  0  0  0
 58  2  1  0  0  0
114 65  1  0  0  0
114 68  1  0  0  0
115 76  1  0  0  0
115 79  1  0  0  0
116 87  1  0  0  0
116 90  1  0  0  0
117122  1  0  0  0
117 95  1  0  0  0
118 97  1  0  0  0
118100  1  0  0  0
119123  1  0  0  0
119104  1  0  0  0
120106  1  0  0  0
120109  1  0  0  0
121124  1  0  0  0
121113  1  0  0  0
  2  3  2  0  0  0
  4  5  2  0  0  0
  7 61  2  0  0  0
  8  9  2  0  0  0
 17 71  2  0  0  0
 19 20  2  0  0  0
 21 22  2  0  0  0
 24 25  2  0  0  0
 33 82  2  0  0  0
 35 36  2  0  0  0
 37 38  2  0  0  0
 40 41  2  0  0  0
 57 58  2  0  0  0
114 66  2  0  0  0
114 67  2  0  0  0
115 77  2  0  0  0
115 78  2  0  0  0
116 88  2  0  0  0
116 89  2  0  0  0
117 93  2  0  0  0
117 94  2  0  0  0
118 98  2  0  0  0
118 99  2  0  0  0
119102  2  0  0  0
119103  2  0  0  0
120107  2  0  0  0
120108  2  0  0  0
121111  2  0  0  0
121112  2  0  0  0
M  END
> <rmsd>
0.637259603

$$$$
CHEMBL3686494 PubChem-91669039


 32 33  0  0  0  0  0  0  0  0999 V2000
   -5.5025   -1.7389  -17.4947 C   0  0  0  0  0
   -6.4554   -0.5671  -17.7034 C   0  0  0  0  0
   -7.6678   -1.0872  -18.4351 C   0  0  0  0  0
   -7.4212   -0.6892  -19.8770 C   0  0  0  0  0
   -5.8841    0.5006  -18.6692 C   0  0  0  0  0
   -6.4853    1.8347  -18.4284 C   0  0  0  0  0
   -3.6407    0.2355  -19.6434 C   0  0  0  0  0
   -2.2512    0.3016  -19.6024 C   0  0  0  0  0
   -1.6482    0.7556  -18.4376 C   0  0  0  0  0
   -3.7701    1.0541  -17.4305 C   0  0  0  0  0
   -7.2955   -1.9180  -20.7689 C   0  0  0  0  0
   -6.2608    0.1096  -19.9764 O   0  0  0  0  0
   -4.4318    1.4112  -16.4196 O   0  0  0  0  0
   -6.1101   -2.6074  -20.4934 O   0  0  0  0  0
   -7.5125   -4.3487  -19.1252 O   0  0  0  0  0
   -7.3106   -4.7815  -21.7061 O   0  0  0  0  0
   -5.1437   -5.1260  -19.9738 O   0  0  0  0  0
   -6.7339   -7.0574  -19.0723 O   0  0  0  0  0
   -5.9480   -7.2583  -21.5532 O   0  0  0  0  0
   -4.2253   -7.7154  -19.4697 O   0  0  0  0  0
   -2.6315   -7.9860  -17.4168 O   0  0  0  0  0
   -2.8940   -5.5582  -18.3232 O   0  0  0  0  0
   -4.9042   -6.8192  -16.9049 O   0  0  0  0  0
   -8.8387   -0.4666  -17.9903 O   0  0  0  0  0
   -6.7975   -0.0385  -16.4520 O   0  0  0  0  0
   -6.9548    2.8759  -18.2414 N   0  0  0  0  0
   -4.4025    0.6059  -18.5696 N   0  0  0  0  0
   -2.4133    1.1216  -17.3806 N   0  0  0  0  0
   -0.2309    0.8378  -18.3538 N   0  0  0  0  0
   -6.5563   -4.2313  -20.2928 P   0  0  0  0  0
   -5.5534   -6.7811  -19.9789 P   0  0  0  0  0
   -3.6473   -7.0419  -18.0170 P   0  0  0  0  0
  2  1  1  0  0  0
  2  3  1  0  0  0
  2 25  1  0  0  0
  3  4  1  0  0  0
  3 24  1  0  0  0
  4 12  1  0  0  0
  4 11  1  0  0  0
  5 12  1  0  0  0
  5  6  1  0  0  0
  5 27  1  0  0  0
  5  2  1  0  0  0
  8  9  1  0  0  0
  9 29  1  0  0  0
 10 28  1  0  0  0
 10 27  1  0  0  0
 11 14  1  0  0  0
 27  7  1  0  0  0
 30 14  1  0  0  0
 30 16  1  0  0  0
 30 17  1  0  0  0
 31 17  1  0  0  0
 31 19  1  0  0  0
 31 20  1  0  0  0
 32 20  1  0  0  0
 32 22  1  0  0  0
 32 23  1  0  0  0
  7  8  2  0  0  0
  9 28  2  0  0  0
 10 13  2  0  0  0
 30 15  2  0  0  0
 31 18  2  0  0  0
 32 21  2  0  0  0
  6 26  3  0  0  0
M  END
> <rmsd>
0.622229815

$$$$
CHEMBL415758 PubChem-469358


 46 49  0  0  0  0  0  0  0  0999 V2000
   -9.6686    5.5952  -20.7264 C   0  0  0  0  0
  -11.0502    4.9705  -20.8019 C   0  0  0  0  0
  -12.0848    6.0745  -20.7606 C   0  0  0  0  0
  -11.2018    4.2133  -22.1090 C   0  0  0  0  0
  -10.4852    2.9093  -19.3739 C   0  0  0  0  0
  -10.8080    2.0898  -18.1815 C   0  0  0  0  0
  -11.8923    2.4763  -17.3768 C   0  0  0  0  0
  -12.2380    1.7459  -16.2388 C   0  0  0  0  0
  -11.5021    0.6152  -15.8871 C   0  0  0  0  0
  -10.4216    0.2164  -16.6739 C   0  0  0  0  0
  -10.0603    0.9425  -17.8220 C   0  0  0  0  0
   -8.1363   -0.5679  -18.2600 C   0  0  0  0  0
   -6.8920   -0.0769  -17.5311 C   0  0  0  0  0
   -5.9359   -1.2420  -17.2749 C   0  0  0  0  0
   -4.7123   -0.8311  -16.4465 C   0  0  0  0  0
   -3.7648    0.0637  -17.1868 C   0  0  0  0  0
   -2.5349   -0.4426  -17.6193 C   0  0  0  0  0
   -1.6368    0.3821  -18.3039 C   0  0  0  0  0
   -1.9649    1.7186  -18.5517 C   0  0  0  0  0
   -3.1897    2.2308  -18.1122 C   0  0  0  0  0
   -4.0872    1.4054  -17.4285 C   0  0  0  0  0
   -5.8256   -3.1943  -18.8698 C   0  0  0  0  0
   -5.3025   -3.7653  -20.1527 C   0  0  0  0  0
   -6.3231   -3.6406  -21.2875 C   0  0  0  0  0
   -7.5685   -4.4388  -21.0592 C   0  0  0  0  0
   -3.7425   -5.5172  -19.1779 C   0  0  0  0  0
   -3.4055   -6.9380  -19.0085 C   0  0  0  0  0
   -2.3430   -7.3297  -18.1818 C   0  0  0  0  0
   -2.7829   -9.6015  -18.6708 C   0  0  0  0  0
   -2.4815  -10.9564  -18.5092 C   0  0  0  0  0
   -3.2415  -11.9221  -19.1779 C   0  0  0  0  0
   -4.3003  -11.5347  -20.0078 C   0  0  0  0  0
   -4.6055  -10.1797  -20.1734 C   0  0  0  0  0
   -3.8504   -9.2116  -19.5053 C   0  0  0  0  0
  -11.2677    4.0775  -19.6657 N   0  0  0  0  0
   -5.5101   -1.8448  -18.5315 N   0  0  0  0  0
   -8.8059   -3.7717  -20.8528 N   0  0  0  0  0
   -4.8638   -5.1472  -19.9862 N   0  0  0  0  0
   -2.0549   -8.6500  -18.0314 N   0  0  0  0  0
   -4.1340   -7.8920  -19.6518 N   0  0  0  0  0
   -9.5308    2.5895  -20.1338 O   0  0  0  0  0
   -8.9750    0.5281  -18.6072 O   0  0  0  0  0
   -7.2622    0.5119  -16.3197 O   0  0  0  0  0
   -6.5581   -3.8881  -18.1129 O   0  0  0  0  0
   -7.5313   -5.6971  -21.0718 O   0  0  0  0  0
   -3.0498   -4.6286  -18.6104 O   0  0  0  0  0
  1  2  1  0  0  0
  2  3  1  0  0  0
  2  4  1  0  0  0
  2 35  1  0  0  0
  5  6  1  0  0  0
  7  8  1  0  0  0
  9 10  1  0  0  0
 11 42  1  0  0  0
 11  6  1  0  0  0
 12 42  1  0  0  0
 13 12  1  0  0  0
 13 43  1  0  0  0
 13 14  1  0  0  0
 14 15  1  0  0  0
 14 36  1  0  0  0
 15 16  1  0  0  0
 17 18  1  0  0  0
 19 20  1  0  0  0
 21 16  1  0  0  0
 23 22  1  0  0  0
 23 24  1  0  0  0
 23 38  1  0  0  0
 24 25  1  0  0  0
 25 37  1  0  0  0
 26 27  1  0  0  0
 27 40  1  0  0  0
 28 39  1  0  0  0
 29 30  1  0  0  0
 31 32  1  0  0  0
 33 34  1  0  0  0
 34 29  1  0  0  0
 35  5  1  0  0  0
 36 22  1  0  0  0
 38 26  1  0  0  0
  5 41  2  0  0  0
  6  7  2  0  0  0
  8  9  2  0  0  0
 10 11  2  0  0  0
 16 17  2  0  0  0
 18 19  2  0  0  0
 20 21  2  0  0  0
 22 44  2  0  0  0
 25 45  2  0  0  0
 26 46  2  0  0  0
 27 28  2  0  0  0
 29 39  2  0  0  0
 30 31  2  0  0  0
 32 33  2  0  0  0
 34 40  2  0  0  0
M  END
> <rmsd>
0.763022125

$$$$
CHEMBL3600562 PubChem-122184356


 72 73  0  0  0  0  0  0  0  0999 V2000
    7.3205  -17.5303  -22.2927 C   0  0  0  0  0
    7.0015  -16.0510  -22.3836 C   0  0  0  0  0
    6.5127  -15.5342  -21.0364 C   0  0  0  0  0
    5.1043  -16.0251  -20.7293 C   0  0  0  0  0
    4.0589  -15.2789  -21.5452 C   0  0  0  0  0
    3.8548  -13.8715  -21.0131 C   0  0  0  0  0
    2.7339  -13.1998  -21.7767 C   0  0  0  0  0
    2.5374  -11.7874  -21.2551 C   0  0  0  0  0
    1.3512  -11.1405  -21.9530 C   0  0  0  0  0
    0.0270  -11.6380  -21.3729 C   0  0  0  0  0
   -0.2258  -11.0620  -19.9845 C   0  0  0  0  0
   -0.5415   -9.5801  -20.0483 C   0  0  0  0  0
   -2.0788   -8.6264  -21.8015 C   0  0  0  0  0
   -3.4622   -8.4214  -22.3473 C   0  0  0  0  0
   -3.9600   -6.9701  -22.3503 C   0  0  0  0  0
   -3.9940   -6.3127  -21.0081 C   0  0  0  0  0
   -2.7672   -5.4768  -18.9636 C   0  0  0  0  0
   -1.7735   -6.1451  -18.0272 C   0  0  0  0  0
   -2.4218   -4.0356  -19.1557 C   0  0  0  0  0
   -3.1572   -1.6226  -19.0029 C   0  0  0  0  0
   -2.8089   -1.1526  -17.5895 C   0  0  0  0  0
   -2.3562    0.2706  -17.5736 C   0  0  0  0  0
   -3.1614    1.2411  -16.9699 C   0  0  0  0  0
   -2.7490    2.5772  -16.9374 C   0  0  0  0  0
   -1.5224    2.9423  -17.5000 C   0  0  0  0  0
   -0.7103    1.9720  -18.0990 C   0  0  0  0  0
   -1.1255    0.6358  -18.1367 C   0  0  0  0  0
   -4.3729   -0.9081  -19.5049 C   0  0  0  0  0
   -6.8745   -0.4661  -19.2445 C   0  0  0  0  0
   -6.9422    0.9789  -18.7272 C   0  0  0  0  0
   -6.8518    1.1318  -17.2341 C   0  0  0  0  0
   -8.0397   -1.2977  -18.7780 C   0  0  0  0  0
   -8.8336   -3.4537  -17.6720 C   0  0  0  0  0
   -8.2546   -4.8279  -17.5326 C   0  0  0  0  0
   -9.8435   -6.0025  -19.1792 C   0  0  0  0  0
  -10.2063   -4.7614  -20.0216 C   0  0  0  0  0
   -9.2202   -4.3652  -21.0873 C   0  0  0  0  0
   -9.8971   -7.3089  -19.9217 C   0  0  0  0  0
   -9.5612   -9.8121  -19.8838 C   0  0  0  0  0
   -9.8831  -10.8898  -18.8688 C   0  0  0  0  0
   -8.2335  -10.1010  -20.5138 C   0  0  0  0  0
   -5.8047  -10.7408  -20.2351 C   0  0  0  0  0
   -5.1070  -11.6482  -19.2313 C   0  0  0  0  0
   -4.2539  -12.6532  -19.9248 C   0  0  0  0  0
   -4.9465   -9.5598  -20.5504 C   0  0  0  0  0
   -1.8689   -9.3737  -20.6008 N   0  0  0  0  0
   -2.7922   -6.1602  -20.2480 N   0  0  0  0  0
   -3.4348   -3.0489  -18.9706 N   0  0  0  0  0
   -5.6222   -1.0961  -18.8380 N   0  0  0  0  0
   -6.9253    2.4297  -16.6626 N   0  0  0  0  0
   -7.7958   -2.5952  -18.2208 N   0  0  0  0  0
   -8.5805   -5.8822  -18.4492 N   0  0  0  0  0
   -9.5319   -3.2568  -21.9323 N   0  0  0  0  0
   -9.5300   -8.5074  -19.2418 N   0  0  0  0  0
   -7.0849  -10.3112  -19.6936 N   0  0  0  0  0
   -4.5418  -14.0368  -19.7903 N   0  0  0  0  0
   -4.4481   -9.4039  -21.8823 N   0  0  0  0  0
   -1.0978   -8.1328  -22.4235 O   0  0  0  0  0
   -5.0921   -5.8707  -20.5669 O   0  0  0  0  0
   -2.2022   -7.4363  -17.7267 O   0  0  0  0  0
   -1.2590   -3.6959  -19.5123 O   0  0  0  0  0
   -1.1096    4.2670  -17.4656 O   0  0  0  0  0
   -4.2884   -0.1494  -20.5116 O   0  0  0  0  0
   -6.7164    0.1335  -16.4774 O   0  0  0  0  0
   -9.2151   -0.8749  -18.9217 O   0  0  0  0  0
   -7.3862   -5.0377  -16.6392 O   0  0  0  0  0
   -8.1286   -4.9838  -21.2480 O   0  0  0  0  0
  -10.3126   -7.3543  -21.1142 O   0  0  0  0  0
  -11.0959  -10.6188  -18.2300 O   0  0  0  0  0
   -8.1504  -10.2136  -21.7684 O   0  0  0  0  0
   -3.2685  -12.2895  -20.6182 O   0  0  0  0  0
   -4.6242   -8.7544  -19.6361 O   0  0  0  0  0
  1  2  1  0  0  0
  2  3  1  0  0  0
  3  4  1  0  0  0
  4  5  1  0  0  0
  5  6  1  0  0  0
  6  7  1  0  0  0
  7  8  1  0  0  0
  8  9  1  0  0  0
  9 10  1  0  0  0
 10 11  1  0  0  0
 11 12  1  0  0  0
 12 46  1  0  0  0
 14 13  1  0  0  0
 14 15  1  0  0  0
 14 57  1  0  0  0
 15 16  1  0  0  0
 16 47  1  0  0  0
 17 47  1  0  0  0
 17 18  1  0  0  0
 17 19  1  0  0  0
 18 60  1  0  0  0
 19 48  1  0  0  0
 20 48  1  0  0  0
 20 21  1  0  0  0
 20 28  1  0  0  0
 21 22  1  0  0  0
 23 24  1  0  0  0
 25 62  1  0  0  0
 25 26  1  0  0  0
 27 22  1  0  0  0
 28 49  1  0  0  0
 29 49  1  0  0  0
 29 30  1  0  0  0
 29 32  1  0  0  0
 30 31  1  0  0  0
 31 50  1  0  0  0
 32 51  1  0  0  0
 33 51  1  0  0  0
 33 34  1  0  0  0
 34 52  1  0  0  0
 35 52  1  0  0  0
 35 36  1  0  0  0
 35 38  1  0  0  0
 36 37  1  0  0  0
 37 53  1  0  0  0
 38 54  1  0  0  0
 39 54  1  0  0  0
 39 40  1  0  0  0
 39 41  1  0  0  0
 40 69  1  0  0  0
 41 55  1  0  0  0
 42 55  1  0  0  0
 42 43  1  0  0  0
 42 45  1  0  0  0
 43 44  1  0  0  0
 44 56  1  0  0  0
 45 57  1  0  0  0
 46 13  1  0  0  0
 13 58  2  0  0  0
 16 59  2  0  0  0
 19 61  2  0  0  0
 22 23  2  0  0  0
 24 25  2  0  0  0
 26 27  2  0  0  0
 28 63  2  0  0  0
 31 64  2  0  0  0
 32 65  2  0  0  0
 34 66  2  0  0  0
 37 67  2  0  0  0
 38 68  2  0  0  0
 41 70  2  0  0  0
 44 71  2  0  0  0
 45 72  2  0  0  0
M  END
> <rmsd>
0.745050848

$$$$
CHEMBL270684 PubChem-44457126


 67 72  0  0  0  0  0  0  0  0999 V2000
   -3.5767   -6.4025  -19.3651 C   0  0  0  0  0
   -4.8978   -7.1331  -19.2292 C   0  0  0  0  0
   -3.3561   -8.7473  -19.0752 C   0  0  0  0  0
   -2.5953   -7.4628  -18.9527 C   0  0  0  0  0
   -2.6135   -8.5088  -16.9731 C   0  0  0  0  0
   -3.4066   -8.1996  -15.7207 C   0  0  0  0  0
   -1.3457   -9.2426  -16.5676 C   0  0  0  0  0
   -6.0356   -6.5697  -20.0853 C   0  0  0  0  0
   -7.3654   -7.1470  -19.6131 C   0  0  0  0  0
   -7.5706   -9.5225  -19.0048 C   0  0  0  0  0
   -7.8011  -10.9322  -19.4318 C   0  0  0  0  0
   -9.0475  -11.5034  -18.7679 C   0  0  0  0  0
  -10.2901  -10.9598  -19.3883 C   0  0  0  0  0
  -11.7848  -10.8164  -21.3419 C   0  0  0  0  0
  -12.1188  -11.5489  -22.5472 C   0  0  0  0  0
  -11.5050   -9.6224  -22.2055 C   0  0  0  0  0
  -10.4290  -10.3010  -25.5792 C   0  0  0  0  0
  -10.2728  -11.5891  -26.3881 C   0  0  0  0  0
  -11.0764  -11.5670  -27.6790 C   0  0  0  0  0
   -9.8789   -9.1069  -26.3391 C   0  0  0  0  0
  -11.2197  -12.7193  -22.8826 C   0  0  0  0  0
  -11.7108  -14.0380  -22.7973 C   0  0  0  0  0
  -10.8753  -15.1140  -23.1122 C   0  0  0  0  0
   -9.5575  -14.8919  -23.5169 C   0  0  0  0  0
   -9.0619  -13.5901  -23.5958 C   0  0  0  0  0
   -9.8854  -12.5095  -23.2754 C   0  0  0  0  0
   -6.8699   -4.3298  -20.7518 C   0  0  0  0  0
   -6.9554   -2.8671  -20.4710 C   0  0  0  0  0
   -6.8087   -2.6051  -18.9771 C   0  0  0  0  0
   -7.1250   -1.1855  -18.6617 C   0  0  0  0  0
   -6.3990    0.9658  -17.7077 C   0  0  0  0  0
   -5.2161    1.7834  -17.5288 C   0  0  0  0  0
   -6.5480    0.9417  -16.2171 C   0  0  0  0  0
   -5.4592    3.9379  -14.6822 C   0  0  0  0  0
   -5.2478    4.8138  -15.9081 C   0  0  0  0  0
   -5.2447    4.7155  -13.3876 C   0  0  0  0  0
   -3.8412    5.2943  -13.2830 C   0  0  0  0  0
   -3.9107    1.1834  -18.0134 C   0  0  0  0  0
   -3.2817    0.1505  -17.2942 C   0  0  0  0  0
   -2.0886   -0.4136  -17.7551 C   0  0  0  0  0
   -1.5139    0.0435  -18.9455 C   0  0  0  0  0
   -2.1317    1.0665  -19.6706 C   0  0  0  0  0
   -3.3249    1.6412  -19.2112 C   0  0  0  0  0
   -2.2591   -5.2353  -21.0984 C   0  0  0  0  0
   -2.0564   -4.9371  -22.5192 C   0  0  0  0  0
   -1.0308   -4.2070  -22.9413 C   0  0  0  0  0
   -4.6682   -8.4848  -19.5156 O   0  0  0  0  0
   -2.2713   -7.3024  -17.6072 O   0  0  0  0  0
   -3.3895   -9.3332  -17.8098 O   0  0  0  0  0
   -7.4845   -8.5190  -19.9700 O   0  0  0  0  0
   -7.4278   -9.2535  -17.7828 O   0  0  0  0  0
  -11.0773  -10.2574  -18.6970 O   0  0  0  0  0
  -10.5838  -11.2611  -20.7140 O   0  0  0  0  0
  -11.1266   -8.4396  -21.9964 O   0  0  0  0  0
   -6.0715   -5.1517  -19.9499 O   0  0  0  0  0
   -7.4945   -4.8072  -21.7337 O   0  0  0  0  0
   -8.3070   -0.7595  -18.7976 O   0  0  0  0  0
   -6.1181   -0.3503  -18.1817 O   0  0  0  0  0
   -7.3745    0.4373  -15.4091 O   0  0  0  0  0
   -3.3400   -6.0390  -20.7211 O   0  0  0  0  0
   -1.4725   -4.7684  -20.2279 O   0  0  0  0  0
  -11.8761  -10.4054  -23.4066 N   0  0  0  0  0
   -5.3228    1.7577  -16.0853 N   0  0  0  0  0
  -12.1695  -10.0198  -25.1085 S   0  0  0  0  0
   -4.4129    2.4477  -14.7423 S   0  0  0  0  0
  -13.3557  -14.3778  -22.2788 Cl  0  0  0  0  0
   -4.0547    2.9316  -20.1569 Cl  0  0  0  0  0
  1  2  1  0  0  0
  1 60  1  0  0  0
  2 47  1  0  0  0
  2  8  1  0  0  0
  3 47  1  0  0  0
  3  4  1  0  0  0
  3 49  1  0  0  0
  4 48  1  0  0  0
  4  1  1  0  0  0
  5 48  1  0  0  0
  5 49  1  0  0  0
  5  6  1  0  0  0
  5  7  1  0  0  0
  8  9  1  0  0  0
  8 55  1  0  0  0
  9 50  1  0  0  0
 10 50  1  0  0  0
 11 10  1  0  0  0
 11 12  1  0  0  0
 12 13  1  0  0  0
 13 53  1  0  0  0
 14 53  1  0  0  0
 14 15  1  0  0  0
 14 16  1  0  0  0
 15 62  1  0  0  0
 15 21  1  0  0  0
 17 64  1  0  0  0
 17 18  1  0  0  0
 17 20  1  0  0  0
 18 19  1  0  0  0
 22 23  1  0  0  0
 22 66  1  0  0  0
 24 25  1  0  0  0
 26 21  1  0  0  0
 27 55  1  0  0  0
 28 27  1  0  0  0
 28 29  1  0  0  0
 29 30  1  0  0  0
 30 58  1  0  0  0
 31 58  1  0  0  0
 31 32  1  0  0  0
 31 33  1  0  0  0
 32 63  1  0  0  0
 32 38  1  0  0  0
 34 65  1  0  0  0
 34 35  1  0  0  0
 34 36  1  0  0  0
 36 37  1  0  0  0
 39 40  1  0  0  0
 41 42  1  0  0  0
 43 67  1  0  0  0
 43 38  1  0  0  0
 44 60  1  0  0  0
 44 45  1  0  0  0
 62 16  1  0  0  0
 62 64  1  0  0  0
 63 33  1  0  0  0
 63 65  1  0  0  0
 10 51  2  0  0  0
 13 52  2  0  0  0
 16 54  2  0  0  0
 21 22  2  0  0  0
 23 24  2  0  0  0
 25 26  2  0  0  0
 27 56  2  0  0  0
 30 57  2  0  0  0
 33 59  2  0  0  0
 38 39  2  0  0  0
 40 41  2  0  0  0
 42 43  2  0  0  0
 44 61  2  0  0  0
 45 46  2  0  0  0
M  END
> <rmsd>
0.713675797

$$$$
CHEMBL2057908 PubChem-70696760


 92103  0  0  0  0  0  0  0  0999 V2000
   -2.5813   -2.7689  -16.1047 P   0  0  0  0  0
   -8.7313    0.2417  -16.9069 P   0  0  0  0  0
   -4.7727   -9.2307  -20.5048 P   0  0  0  0  0
    0.8640  -16.5798  -21.4694 P   0  0  0  0  0
   -1.9599   -1.4343  -16.4476 O   0  0  0  0  0
   -3.7125   -3.2507  -17.2820 O   0  0  0  0  0
   -8.4560   -0.8840  -18.1467 O   0  0  0  0  0
   -7.6195    0.1719  -15.8826 O   0  0  0  0  0
   -8.8024    1.8042  -17.5501 O   0  0  0  0  0
  -10.2051   -0.1104  -16.1584 O   0  0  0  0  0
   -5.2566   -1.3007  -19.7566 O   0  0  0  0  0
   -6.2474   -3.5824  -17.5541 O   0  0  0  0  0
   -0.7671   -4.2248  -17.3389 O   0  0  0  0  0
   -2.3339   -8.4501  -17.4129 O   0  0  0  0  0
   -4.2908   -8.4343  -19.0778 O   0  0  0  0  0
   -5.7486   -8.3558  -21.2539 O   0  0  0  0  0
   -2.4071  -10.3473  -20.9050 O   0  0  0  0  0
    0.3989  -13.1971  -22.5726 O   0  0  0  0  0
    0.5681  -15.0580  -20.7807 O   0  0  0  0  0
    2.3428  -16.8768  -21.3718 O   0  0  0  0  0
   -1.4072  -17.8144  -20.9087 O   0  0  0  0  0
   -4.1652  -21.0878  -22.7935 O   0  0  0  0  0
   -2.3559  -22.9004  -23.2902 O   0  0  0  0  0
   -1.5332  -19.5251  -23.1785 O   0  0  0  0  0
    0.4160  -16.5879  -23.1016 O   0  0  0  0  0
   -1.9809  -13.0182  -19.9797 O   0  0  0  0  0
   -5.5422  -10.6753  -20.0950 O   0  0  0  0  0
   -2.7699   -5.3026  -18.8694 O   0  0  0  0  0
   -3.3405   -2.6614  -14.5951 O   0  0  0  0  0
   -4.3756   -2.0953  -17.7071 C   0  0  0  0  0
   -5.8720   -2.2410  -17.6439 C   0  0  0  0  0
   -6.3559   -1.6864  -18.9667 C   0  0  0  0  0
   -7.2580   -0.4846  -18.7407 C   0  0  0  0  0
   -4.1196   -1.8855  -19.1776 C   0  0  0  0  0
   -1.7598   -1.3954  -19.9009 C   0  0  0  0  0
   -1.5609    0.6553  -19.3790 C   0  0  0  0  0
   -1.1768    1.9693  -19.1465 C   0  0  0  0  0
   -3.3612    2.3939  -18.2940 C   0  0  0  0  0
   -2.8099    0.2577  -19.0578 C   0  0  0  0  0
   -1.2629   -4.0187  -16.0450 C   0  0  0  0  0
   -0.7761   -5.6126  -17.5506 C   0  0  0  0  0
   -2.1748   -6.1155  -17.8969 C   0  0  0  0  0
   -2.1304   -7.5237  -18.4470 C   0  0  0  0  0
   -3.2753   -7.5333  -19.4446 C   0  0  0  0  0
   -3.3689   -9.6106  -21.5989 C   0  0  0  0  0
   -2.1166  -11.4144  -21.7539 C   0  0  0  0  0
   -1.2530  -12.4270  -21.0269 C   0  0  0  0  0
   -0.8293  -13.5086  -21.9836 C   0  0  0  0  0
   -0.7530  -14.7387  -21.1157 C   0  0  0  0  0
   -0.0511  -17.8791  -20.5895 C   0  0  0  0  0
   -1.8444  -19.1379  -20.8217 C   0  0  0  0  0
   -2.4806  -19.5698  -22.1349 C   0  0  0  0  0
   -3.0148  -20.9751  -22.0090 C   0  0  0  0  0
   -1.8895  -21.8054  -22.5642 C   0  0  0  0  0
   -1.1357  -20.8506  -23.4620 C   0  0  0  0  0
    1.1421  -20.1752  -22.6010 C   0  0  0  0  0
    2.3468  -21.7959  -23.2539 C   0  0  0  0  0
    3.3484  -22.7103  -23.5626 C   0  0  0  0  0
    1.7048  -24.0108  -24.7047 C   0  0  0  0  0
    1.0805  -22.0161  -23.6691 C   0  0  0  0  0
   -1.5072  -14.3380  -19.8574 C   0  0  0  0  0
   -2.7759  -16.0752  -18.5515 C   0  0  0  0  0
   -4.4824  -16.3982  -19.7752 C   0  0  0  0  0
   -5.6715  -16.7894  -20.3753 C   0  0  0  0  0
   -5.1994  -15.2642  -22.1474 C   0  0  0  0  0
   -3.7054  -15.4662  -20.3724 C   0  0  0  0  0
   -3.7921   -6.1064  -19.3822 C   0  0  0  0  0
   -3.4555   -5.5497  -21.8281 C   0  0  0  0  0
   -5.3870   -4.8455  -22.3655 C   0  0  0  0  0
   -6.5400   -4.3601  -22.9662 C   0  0  0  0  0
   -7.6525   -4.5932  -20.8650 C   0  0  0  0  0
   -5.4043   -5.1792  -21.0597 C   0  0  0  0  0
   -2.9613   -1.0280  -19.3751 N   0  0  0  0  0
   -0.8643   -0.3655  -19.9208 N   0  0  0  0  0
    0.1265    2.4287  -19.4792 N   0  0  0  0  0
   -2.0959    2.8221  -18.6040 N   0  0  0  0  0
   -3.7306    1.0965  -18.5242 N   0  0  0  0  0
    0.2989  -21.0107  -23.2555 N   0  0  0  0  0
    2.4218  -20.6437  -22.5735 N   0  0  0  0  0
    4.6973  -22.5059  -23.1456 N   0  0  0  0  0
    3.0002  -23.8115  -24.2951 N   0  0  0  0  0
    0.7269  -23.1040  -24.3954 N   0  0  0  0  0
   -2.6221  -15.2459  -19.6133 N   0  0  0  0  0
   -3.9245  -16.8069  -18.6177 N   0  0  0  0  0
   -6.0042  -16.2097  -21.5649 N   0  0  0  0  0
   -4.0370  -14.8733  -21.5430 N   0  0  0  0  0
   -6.5307  -17.7539  -19.7742 N   0  0  0  0  0
   -4.1996   -5.6329  -20.6966 N   0  0  0  0  0
   -4.1670   -5.0719  -22.8900 N   0  0  0  0  0
   -6.5628   -4.0116  -24.3410 N   0  0  0  0  0
   -7.6648   -4.2449  -22.1939 N   0  0  0  0  0
   -6.5092   -5.0696  -20.2838 N   0  0  0  0  0
  1  6  1  0  0  0
  1 40  1  0  0  0
  1 29  1  0  0  0
  2  7  1  0  0  0
  2  9  1  0  0  0
  2 10  1  0  0  0
  3 15  1  0  0  0
  3 45  1  0  0  0
  3 27  1  0  0  0
  4 19  1  0  0  0
  4 50  1  0  0  0
  4 25  1  0  0  0
 30  6  1  0  0  0
 30 31  1  0  0  0
 31 32  1  0  0  0
 31 12  1  0  0  0
 32 33  1  0  0  0
 32 11  1  0  0  0
 33  7  1  0  0  0
 34 11  1  0  0  0
 34 73  1  0  0  0
 34 30  1  0  0  0
 36 74  1  0  0  0
 37 75  1  0  0  0
 37 76  1  0  0  0
 38 77  1  0  0  0
 39 73  1  0  0  0
 39 36  1  0  0  0
 40 13  1  0  0  0
 41 13  1  0  0  0
 42 41  1  0  0  0
 42 43  1  0  0  0
 42 28  1  0  0  0
 43 14  1  0  0  0
 43 44  1  0  0  0
 44 15  1  0  0  0
 44 67  1  0  0  0
 45 17  1  0  0  0
 46 17  1  0  0  0
 47 46  1  0  0  0
 47 48  1  0  0  0
 47 26  1  0  0  0
 48 18  1  0  0  0
 48 49  1  0  0  0
 49 19  1  0  0  0
 49 61  1  0  0  0
 50 21  1  0  0  0
 51 21  1  0  0  0
 52 51  1  0  0  0
 52 53  1  0  0  0
 52 24  1  0  0  0
 53 22  1  0  0  0
 53 54  1  0  0  0
 54 23  1  0  0  0
 54 55  1  0  0  0
 55 24  1  0  0  0
 55 78  1  0  0  0
 57 79  1  0  0  0
 58 80  1  0  0  0
 58 81  1  0  0  0
 59 82  1  0  0  0
 60 78  1  0  0  0
 60 57  1  0  0  0
 61 26  1  0  0  0
 61 83  1  0  0  0
 63 84  1  0  0  0
 64 85  1  0  0  0
 64 87  1  0  0  0
 65 86  1  0  0  0
 66 83  1  0  0  0
 66 63  1  0  0  0
 67 28  1  0  0  0
 67 88  1  0  0  0
 69 89  1  0  0  0
 70 90  1  0  0  0
 70 91  1  0  0  0
 71 92  1  0  0  0
 72 88  1  0  0  0
 72 69  1  0  0  0
 73 35  1  0  0  0
 78 56  1  0  0  0
 83 62  1  0  0  0
 88 68  1  0  0  0
  1  5  2  0  0  0
  2  8  2  0  0  0
  3 16  2  0  0  0
  4 20  2  0  0  0
 35 74  2  0  0  0
 36 37  2  0  0  0
 38 76  2  0  0  0
 39 77  2  0  0  0
 56 79  2  0  0  0
 57 58  2  0  0  0
 59 81  2  0  0  0
 60 82  2  0  0  0
 62 84  2  0  0  0
 63 64  2  0  0  0
 65 85  2  0  0  0
 66 86  2  0  0  0
 68 89  2  0  0  0
 69 70  2  0  0  0
 71 91  2  0  0  0
 72 92  2  0  0  0
M  END
> <rmsd>
0.707804918

$$$$
CHEMBL1161867 PubChem-11354835 PubChem-11354836


 41 46  0  0  0  0  0  0  0  0999 V2000
   -2.0565   -5.1208  -19.5085 O   0  0  0  0  0
   -4.4348   -7.9860  -19.4328 O   0  0  0  0  0
   -6.9555   -9.1446  -19.9479 O   0  0  0  0  0
   -9.2845   -8.0585  -19.4470 O   0  0  0  0  0
   -8.2102   -7.5288  -21.7704 O   0  0  0  0  0
   -7.2228   -6.4290  -19.3821 O   0  0  0  0  0
   -7.3251   -4.8490  -21.4734 O   0  0  0  0  0
   -9.5729   -5.1181  -20.1652 O   0  0  0  0  0
   -7.4075   -3.6849  -19.1522 O   0  0  0  0  0
   -6.9435   -2.5326  -16.4421 O   0  0  0  0  0
   -6.9631    0.5765  -16.6987 O   0  0  0  0  0
   -8.9623   -0.2697  -18.1025 O   0  0  0  0  0
   -4.0336  -10.3807  -16.8962 O   0  0  0  0  0
   -1.9767   -8.9966  -17.6891 O   0  0  0  0  0
   -3.0766   -4.9527  -18.7860 C   0  0  0  0  0
   -3.5096   -3.6740  -18.4590 C   0  0  0  0  0
   -3.7959   -1.5967  -18.1595 C   0  0  0  0  0
   -3.5014   -0.1499  -18.1594 C   0  0  0  0  0
   -2.8467    0.4224  -19.2593 C   0  0  0  0  0
   -2.5198    1.7816  -19.2603 C   0  0  0  0  0
   -2.8331    2.5761  -18.1540 C   0  0  0  0  0
   -3.4663    2.0090  -17.0440 C   0  0  0  0  0
   -3.7926    0.6497  -17.0445 C   0  0  0  0  0
   -4.6112   -3.5026  -17.6977 C   0  0  0  0  0
   -4.8997   -5.8120  -17.5114 C   0  0  0  0  0
   -3.4124   -7.3866  -18.6673 C   0  0  0  0  0
   -4.9062   -9.1067  -18.7203 C   0  0  0  0  0
   -6.4255   -9.0776  -18.6577 C   0  0  0  0  0
   -8.3493   -3.5622  -18.1238 C   0  0  0  0  0
   -8.0637   -2.3239  -17.2750 C   0  0  0  0  0
   -5.9638   -1.5712  -16.7764 C   0  0  0  0  0
   -6.6202   -0.4587  -17.5736 C   0  0  0  0  0
   -7.8458   -1.1095  -18.1478 C   0  0  0  0  0
   -4.3410   -9.0860  -17.3212 C   0  0  0  0  0
   -3.1148   -8.2248  -17.4403 C   0  0  0  0  0
   -2.9644   -2.4871  -18.7714 N   0  0  0  0  0
   -4.8481   -2.1913  -17.5144 N   0  0  0  0  0
   -5.3131   -4.5490  -17.2010 N   0  0  0  0  0
   -3.7934   -6.0206  -18.3029 N   0  0  0  0  0
   -7.9566   -7.7828  -20.1155 P   0  0  0  0  0
   -7.8822   -5.0242  -20.0790 P   0  0  0  0  0
 15 16  1  0  0  0
 16 36  1  0  0  0
 17 18  1  0  0  0
 17 37  1  0  0  0
 19 20  1  0  0  0
 21 22  1  0  0  0
 23 18  1  0  0  0
 24 38  1  0  0  0
 25 39  1  0  0  0
 26 39  1  0  0  0
 26  2  1  0  0  0
 27  2  1  0  0  0
 27 28  1  0  0  0
 27 34  1  0  0  0
 28  3  1  0  0  0
 29  9  1  0  0  0
 30 29  1  0  0  0
 30 10  1  0  0  0
 31 10  1  0  0  0
 31 32  1  0  0  0
 31 37  1  0  0  0
 32 11  1  0  0  0
 32 33  1  0  0  0
 33 12  1  0  0  0
 33 30  1  0  0  0
 34 13  1  0  0  0
 34 35  1  0  0  0
 35 14  1  0  0  0
 35 26  1  0  0  0
 37 24  1  0  0  0
 39 15  1  0  0  0
 40  3  1  0  0  0
 40  5  1  0  0  0
 40  6  1  0  0  0
 41  6  1  0  0  0
 41  8  1  0  0  0
 41  9  1  0  0  0
 15  1  2  0  0  0
 17 36  2  0  0  0
 18 19  2  0  0  0
 20 21  2  0  0  0
 22 23  2  0  0  0
 24 16  2  0  0  0
 25 38  2  0  0  0
 40  4  2  0  0  0
 41  7  2  0  0  0
M  END
> <rmsd>
0.672314525

$$$$
CHEMBL1767335


 32 33  0  0  0  0  0  0  0  0999 V2000
   -4.9695   -5.4194  -18.2845 C   0  0  0  0  0
   -5.3203   -4.0006  -17.8027 C   0  0  0  0  0
   -5.4898   -3.0080  -18.9542 C   0  0  0  0  0
   -6.3284   -3.5923  -20.0527 C   0  0  0  0  0
   -6.4588   -4.9136  -20.2268 C   0  0  0  0  0
   -7.2807   -5.4380  -21.3261 C   0  0  0  0  0
   -5.6405   -0.4772  -18.8002 C   0  0  0  0  0
   -8.0974    2.1465  -16.8213 C   0  0  0  0  0
   -4.4790   -0.3123  -19.7377 C   0  0  0  0  0
   -3.4808    0.6805  -19.2353 C   0  0  0  0  0
   -2.9982    1.7517  -19.9628 C   0  0  0  0  0
   -2.0320    2.4895  -19.2608 C   0  0  0  0  0
   -1.7406    2.0003  -17.9874 C   0  0  0  0  0
   -3.1372   -2.9592  -16.9100 C   0  0  0  0  0
   -2.3461   -2.5613  -15.7174 C   0  0  0  0  0
   -3.4893   -5.6141  -18.6529 C   0  0  0  0  0
   -3.0403   -7.0737  -18.5767 C   0  0  0  0  0
   -3.0900   -7.5858  -17.1447 C   0  0  0  0  0
   -5.8187   -5.8213  -19.3666 O   0  0  0  0  0
   -7.8628   -4.6575  -22.1269 O   0  0  0  0  0
   -7.4156   -6.8123  -21.4905 O   0  0  0  0  0
   -8.7894   -0.1511  -18.0203 O   0  0  0  0  0
   -7.2923   -0.2923  -16.0798 O   0  0  0  0  0
   -2.6499   -2.7950  -18.0599 O   0  0  0  0  0
   -3.2087   -5.0887  -19.9199 O   0  0  0  0  0
   -2.4722   -8.8342  -17.0713 O   0  0  0  0  0
   -3.8178   -7.8865  -19.4085 O   0  0  0  0  0
   -6.1156   -1.7882  -18.4685 N   0  0  0  0  0
   -6.2629    0.5751  -18.3635 N   0  0  0  0  0
   -4.4441   -3.5127  -16.7336 N   0  0  0  0  0
   -7.6384    0.4988  -17.3089 S   0  0  0  0  0
   -2.7004    0.6418  -17.7487 S   0  0  0  0  0
  1  2  1  0  0  0
  1 16  1  0  0  0
  1 19  1  0  0  0
  2  3  1  0  0  0
  2 30  1  0  0  0
  3  4  1  0  0  0
  3 28  1  0  0  0
  5 19  1  0  0  0
  5  6  1  0  0  0
  6 21  1  0  0  0
  9  7  1  0  0  0
  9 10  1  0  0  0
 10 32  1  0  0  0
 11 12  1  0  0  0
 13 32  1  0  0  0
 15 14  1  0  0  0
 16 25  1  0  0  0
 16 17  1  0  0  0
 17 18  1  0  0  0
 17 27  1  0  0  0
 18 26  1  0  0  0
 28  7  1  0  0  0
 30 14  1  0  0  0
 31 29  1  0  0  0
 31  8  1  0  0  0
  4  5  2  0  0  0
  6 20  2  0  0  0
  7 29  2  0  0  0
 10 11  2  0  0  0
 12 13  2  0  0  0
 14 24  2  0  0  0
 31 22  2  0  0  0
 31 23  2  0  0  0
M  END
> <rmsd>
0.715047538

$$$$
CHEMBL414089 PubChem-44348576


105116  0  0  0  0  0  0  0  0999 V2000
   -4.3786   -1.9796  -18.9098 C   0  0  0  0  0
   -4.1030    0.0449  -18.1781 C   0  0  0  0  0
   -2.8436   -0.5179  -18.2448 C   0  0  0  0  0
   -3.0097   -1.8081  -18.7290 C   0  0  0  0  0
   -1.9695   -2.8675  -18.8555 C   0  0  0  0  0
   -0.7212   -4.3457  -17.7903 C   0  0  0  0  0
   -0.9934   -5.8521  -17.9101 C   0  0  0  0  0
   -0.7410   -6.2893  -19.3220 C   0  0  0  0  0
   -0.8076   -6.1498  -21.5689 C   0  0  0  0  0
   -1.1316   -5.5185  -22.8622 C   0  0  0  0  0
   -3.5241   -4.7662  -22.3286 C   0  0  0  0  0
   -4.6551   -4.5979  -23.3098 C   0  0  0  0  0
   -6.7527   -4.1901  -24.0333 C   0  0  0  0  0
   -8.1654   -3.7608  -23.9198 C   0  0  0  0  0
   -8.9471   -3.9466  -22.7526 C   0  0  0  0  0
   -8.5294   -4.7661  -21.5986 C   0  0  0  0  0
   -7.8518   -6.6258  -20.5282 C   0  0  0  0  0
   -7.3154   -7.9907  -20.4391 C   0  0  0  0  0
   -5.1088   -7.9315  -21.6351 C   0  0  0  0  0
   -4.2510   -8.3451  -20.4810 C   0  0  0  0  0
   -3.4859  -10.3905  -19.1087 C   0  0  0  0  0
   -3.3450  -11.7274  -19.1111 C   0  0  0  0  0
   -2.6869  -13.7905  -17.9143 C   0  0  0  0  0
   -3.6679  -12.5152  -20.3465 C   0  0  0  0  0
   -3.1955   -9.6278  -17.8786 C   0  0  0  0  0
   -1.9779   -8.3777  -16.4629 C   0  0  0  0  0
   -0.8209   -7.5664  -16.0604 C   0  0  0  0  0
   -2.8995   -8.8714  -15.5336 C   0  0  0  0  0
   -4.5180   -8.4288  -22.9567 C   0  0  0  0  0
   -5.3858   -8.0079  -24.1276 C   0  0  0  0  0
   -8.4368   -5.9817  -19.4360 C   0  0  0  0  0
  -10.2362   -3.4053  -22.7232 C   0  0  0  0  0
  -10.7563   -2.7261  -23.8176 C   0  0  0  0  0
   -9.9736   -2.5870  -24.9772 C   0  0  0  0  0
  -10.4528   -1.9001  -26.1972 C   0  0  0  0  0
  -10.3066   -0.9800  -28.2496 C   0  0  0  0  0
   -9.6177   -0.5463  -29.4720 C   0  0  0  0  0
   -7.3714   -0.4252  -30.7196 C   0  0  0  0  0
   -7.8960    0.0255  -31.8594 C   0  0  0  0  0
   -5.9133   -0.6243  -30.6099 C   0  0  0  0  0
  -11.6768   -0.7912  -28.0573 C   0  0  0  0  0
   -6.1515   -4.3969  -25.2772 C   0  0  0  0  0
   -3.6120   -3.6978  -21.2512 C   0  0  0  0  0
   -5.0573   -3.2412  -19.2797 C   0  0  0  0  0
    0.1228   -7.1871  -21.4643 C   0  0  0  0  0
    0.3128   -3.8878  -16.7440 C   0  0  0  0  0
    0.6896   -2.4693  -17.0265 C   0  0  0  0  0
   -0.3293   -0.3943  -17.8374 C   0  0  0  0  0
   -1.7017    0.1922  -17.8336 C   0  0  0  0  0
   -1.8785    1.5075  -17.3764 C   0  0  0  0  0
   -3.1598    2.0857  -17.3277 C   0  0  0  0  0
   -4.2858    1.3518  -17.7269 C   0  0  0  0  0
    0.8222   -4.3758  -14.5434 C   0  0  0  0  0
    1.6487   -3.1570  -14.0893 C   0  0  0  0  0
    3.0247   -3.5678  -13.5460 C   0  0  0  0  0
    2.9276   -5.0069  -12.9693 C   0  0  0  0  0
    2.2902   -6.0339  -13.9439 C   0  0  0  0  0
    3.3124   -7.0203  -14.4850 C   0  0  0  0  0
    3.9108   -4.9619  -10.8069 C   0  0  0  0  0
    5.3360   -5.1933  -12.6591 C   0  0  0  0  0
    4.0241   -3.4804  -14.6933 C   0  0  0  0  0
   -7.8152    1.9007  -16.0003 C   0  0  0  0  0
   -7.2441    2.5955  -14.7779 C   0  0  0  0  0
   -5.0416   -0.8496  -18.5680 N   0  0  0  0  0
   -1.2776   -5.6604  -20.3884 N   0  0  0  0  0
   -2.2512   -4.6458  -23.0310 N   0  0  0  0  0
   -5.9251   -4.2976  -22.9578 N   0  0  0  0  0
   -7.9130   -5.9615  -21.7160 N   0  0  0  0  0
   -6.4366   -8.4978  -21.4429 N   0  0  0  0  0
   -3.9549   -9.7351  -20.2997 N   0  0  0  0  0
   -2.1345   -8.8060  -17.7466 N   0  0  0  0  0
   -0.2165   -6.6293  -16.9530 N   0  0  0  0  0
   -9.6399   -1.5924  -27.2319 N   0  0  0  0  0
   -8.2027   -0.7490  -29.5918 N   0  0  0  0  0
   -5.3525   -1.1122  -29.3965 N   0  0  0  0  0
   -8.7106   -3.0965  -24.9805 N   0  0  0  0  0
    4.0225   -5.5370  -12.1373 N   0  0  0  0  0
   -1.9232   -3.6371  -17.6906 O   0  0  0  0  0
   -0.3635   -5.7005  -23.8430 O   0  0  0  0  0
   -7.6565   -8.7394  -19.4865 O   0  0  0  0  0
   -3.8555   -7.4802  -19.6577 O   0  0  0  0  0
   -2.8901  -12.3866  -17.9613 O   0  0  0  0  0
   -0.3249   -7.7249  -14.9128 O   0  0  0  0  0
   -3.2342   -7.9191  -23.1346 O   0  0  0  0  0
  -10.2698    0.0119  -30.3953 O   0  0  0  0  0
   -5.1485   -0.3674  -31.5792 O   0  0  0  0  0
  -12.0400   -2.2047  -23.7297 O   0  0  0  0  0
   -4.6037   -4.0764  -20.3045 O   0  0  0  0  0
   -6.1002   -3.5702  -18.6562 O   0  0  0  0  0
    1.8514   -2.1940  -17.4233 O   0  0  0  0  0
   -0.2825   -1.4769  -16.9236 O   0  0  0  0  0
   -0.2102   -4.0133  -15.4416 O   0  0  0  0  0
    1.6502   -5.4086  -15.0403 O   0  0  0  0  0
    3.3980   -2.6668  -12.5482 O   0  0  0  0  0
   -6.4225   -0.7285  -18.6301 O   0  0  0  0  0
   -6.9824    1.8458  -18.8768 O   0  0  0  0  0
   -6.9537    0.8873  -16.4199 O   0  0  0  0  0
   -8.9718    0.2778  -18.2232 O   0  0  0  0  0
   -3.9491   -9.8634  -16.3982 S   0  0  0  0  0
   -9.0377   -4.5220  -20.0161 S   0  0  0  0  0
  -12.0261   -1.4226  -26.5404 S   0  0  0  0  0
   -4.5309   -4.7399  -24.9792 S   0  0  0  0  0
    0.3349   -7.4797  -19.8202 S   0  0  0  0  0
   -7.3220    0.6220  -18.0544 P   0  0  0  0  0
   -5.8188    3.5635  -15.2277 Cl  0  0  0  0  0
  1 64  1  0  0  0
  3  4  1  0  0  0
  5  4  1  0  0  0
  5 78  1  0  0  0
  6 78  1  0  0  0
  6  7  1  0  0  0
  6 46  1  0  0  0
  7  8  1  0  0  0
  7 72  1  0  0  0
  8103  1  0  0  0
  9 65  1  0  0  0
  9 10  1  0  0  0
 10 66  1  0  0  0
 11 66  1  0  0  0
 11 12  1  0  0  0
 11 43  1  0  0  0
 12102  1  0  0  0
 13 67  1  0  0  0
 13 14  1  0  0  0
 14 76  1  0  0  0
 15 16  1  0  0  0
 15 32  1  0  0  0
 16100  1  0  0  0
 17 68  1  0  0  0
 17 18  1  0  0  0
 18 69  1  0  0  0
 19 69  1  0  0  0
 19 20  1  0  0  0
 19 29  1  0  0  0
 20 70  1  0  0  0
 21 25  1  0  0  0
 22 82  1  0  0  0
 23 82  1  0  0  0
 24 22  1  0  0  0
 25 99  1  0  0  0
 26 71  1  0  0  0
 26 27  1  0  0  0
 27 72  1  0  0  0
 28 99  1  0  0  0
 29 84  1  0  0  0
 29 30  1  0  0  0
 31100  1  0  0  0
 33 34  1  0  0  0
 33 87  1  0  0  0
 34 35  1  0  0  0
 35101  1  0  0  0
 36 73  1  0  0  0
 36 37  1  0  0  0
 37 74  1  0  0  0
 38 40  1  0  0  0
 40 75  1  0  0  0
 41101  1  0  0  0
 42102  1  0  0  0
 43 88  1  0  0  0
 44 88  1  0  0  0
 44  1  1  0  0  0
 45103  1  0  0  0
 46 47  1  0  0  0
 46 92  1  0  0  0
 47 91  1  0  0  0
 48 91  1  0  0  0
 48 49  1  0  0  0
 49  3  1  0  0  0
 50 51  1  0  0  0
 52  2  1  0  0  0
 53 92  1  0  0  0
 53 54  1  0  0  0
 53 93  1  0  0  0
 54 55  1  0  0  0
 55 56  1  0  0  0
 55 94  1  0  0  0
 55 61  1  0  0  0
 56 57  1  0  0  0
 56 77  1  0  0  0
 57 93  1  0  0  0
 57 58  1  0  0  0
 59 77  1  0  0  0
 60 77  1  0  0  0
 62 97  1  0  0  0
 62 63  1  0  0  0
 63105  1  0  0  0
 64  2  1  0  0  0
 64 95  1  0  0  0
 70 21  1  0  0  0
 74 38  1  0  0  0
104 95  1  0  0  0
104 97  1  0  0  0
104 98  1  0  0  0
  2  3  2  0  0  0
  4  1  2  0  0  0
  8 65  2  0  0  0
  9 45  2  0  0  0
 10 79  2  0  0  0
 12 67  2  0  0  0
 13 42  2  0  0  0
 14 15  2  0  0  0
 16 68  2  0  0  0
 17 31  2  0  0  0
 18 80  2  0  0  0
 20 81  2  0  0  0
 21 22  2  0  0  0
 25 71  2  0  0  0
 26 28  2  0  0  0
 27 83  2  0  0  0
 32 33  2  0  0  0
 34 76  2  0  0  0
 35 73  2  0  0  0
 36 41  2  0  0  0
 37 85  2  0  0  0
 38 39  2  0  0  0
 40 86  2  0  0  0
 44 89  2  0  0  0
 47 90  2  0  0  0
 49 50  2  0  0  0
 51 52  2  0  0  0
104 96  2  0  0  0
M  END
> <rmsd>
0.828483343

$$$$
CHEMBL4060250 PubChem-137637463


 75 83  0  0  0  0  0  0  0  0999 V2000
   -3.2063   -9.6503  -25.1231 O   0  0  0  0  0
   -1.7882   -7.8353  -17.9495 O   0  0  0  0  0
   -2.3739   -5.2661  -17.9710 O   0  0  0  0  0
   -2.4079   -3.3186  -19.7318 O   0  0  0  0  0
   -0.3677   -4.9893  -19.8457 O   0  0  0  0  0
   -1.6371   -5.9976  -22.2154 O   0  0  0  0  0
   -0.6318   -3.1344  -17.8168 O   0  0  0  0  0
   -5.5290   -5.4111  -20.3261 O   0  0  0  0  0
   -8.0820   -4.9109  -19.7926 O   0  0  0  0  0
   -7.4323   -5.2188  -22.2902 O   0  0  0  0  0
   -6.7030   -2.9509  -20.9226 O   0  0  0  0  0
   -9.2356   -0.3622  -18.0173 O   0  0  0  0  0
   -7.4465    0.3988  -16.2231 O   0  0  0  0  0
   -9.6461   -0.6677  -15.2968 O   0  0  0  0  0
   -9.5726    1.8882  -16.4707 O   0  0  0  0  0
  -13.6276    0.1305  -17.4041 O   0  0  0  0  0
  -12.8190    2.7667  -16.5937 O   0  0  0  0  0
  -15.6767    7.0809  -12.7269 O   0  0  0  0  0
   -9.9116    3.9898  -14.9954 O   0  0  0  0  0
   -4.7912   -7.6825  -18.8319 O   0  0  0  0  0
   -2.7516   -9.6573  -23.9473 C   0  0  0  0  0
   -1.0231  -10.2030  -22.3963 C   0  0  0  0  0
   -2.9474   -9.1141  -21.6511 C   0  0  0  0  0
   -3.4669   -9.1038  -22.8956 C   0  0  0  0  0
   -4.8358   -8.1326  -21.6005 C   0  0  0  0  0
   -3.6296   -8.2787  -19.3744 C   0  0  0  0  0
   -2.4317   -7.3926  -19.1093 C   0  0  0  0  0
   -0.4852   -8.1179  -18.3508 C   0  0  0  0  0
   -3.0633   -6.0437  -18.9087 C   0  0  0  0  0
    0.1582   -4.0422  -20.7267 C   0  0  0  0  0
    0.3253   -4.6434  -22.1127 C   0  0  0  0  0
   -1.0252   -4.8706  -22.7655 C   0  0  0  0  0
   -4.4489   -6.3790  -18.4142 C   0  0  0  0  0
   -5.4683   -5.3707  -18.9281 C   0  0  0  0  0
   -6.6204   -2.4483  -19.6230 C   0  0  0  0  0
   -5.2428   -1.8491  -19.4082 C   0  0  0  0  0
   -4.4177    0.3523  -19.6170 C   0  0  0  0  0
   -3.1363    0.3670  -18.8535 C   0  0  0  0  0
   -2.9559    0.7225  -17.5213 C   0  0  0  0  0
   -1.0224    0.2097  -18.2947 C   0  0  0  0  0
   -1.8924    0.0467  -19.3191 C   0  0  0  0  0
   -0.1669   -0.5704  -20.7651 C   0  0  0  0  0
    0.3322   -0.0276  -18.4968 C   0  0  0  0  0
   -6.7071   -0.0663  -19.4375 C   0  0  0  0  0
   -7.5869   -1.2987  -19.4725 C   0  0  0  0  0
   -8.3512   -1.4348  -18.1608 C   0  0  0  0  0
  -10.7738    1.8513  -15.7476 C   0  0  0  0  0
  -11.9417    1.6746  -16.7122 C   0  0  0  0  0
  -12.6774    0.3799  -16.4100 C   0  0  0  0  0
  -12.0367    3.8077  -16.0760 C   0  0  0  0  0
  -13.6511    4.6802  -14.3352 C   0  0  0  0  0
  -14.6105    3.7148  -12.4362 C   0  0  0  0  0
  -15.0908    5.9929  -12.9837 C   0  0  0  0  0
  -14.2634    5.8593  -14.0900 C   0  0  0  0  0
  -13.0500    6.0895  -15.8228 C   0  0  0  0  0
  -11.0546    3.1919  -15.1112 C   0  0  0  0  0
   -9.7297    4.1479  -13.6227 C   0  0  0  0  0
   -1.5304  -10.2024  -23.6742 N   0  0  0  0  0
    0.2540  -10.7756  -22.1409 N   0  0  0  0  0
   -1.7356   -9.6510  -21.3673 N   0  0  0  0  0
   -4.6638   -8.4898  -22.9043 N   0  0  0  0  0
   -3.7910   -8.5011  -20.8107 N   0  0  0  0  0
   -5.4063   -0.4782  -18.9412 N   0  0  0  0  0
   -1.6450    0.6226  -17.1774 N   0  0  0  0  0
   -1.4977   -0.3371  -20.5581 N   0  0  0  0  0
    0.7348   -0.4161  -19.7429 N   0  0  0  0  0
    1.2813    0.1427  -17.4494 N   0  0  0  0  0
  -12.8734    4.8055  -15.4229 N   0  0  0  0  0
  -13.7975    3.5970  -13.5311 N   0  0  0  0  0
  -14.7841    2.6055  -11.5579 N   0  0  0  0  0
  -15.2498    4.9040  -12.1700 N   0  0  0  0  0
  -13.9115    6.7747  -15.0138 N   0  0  0  0  0
   -1.4756   -4.1474  -18.8739 P   0  0  0  0  0
   -6.9667   -4.6244  -20.7781 P   0  0  0  0  0
   -8.9346    0.3098  -16.4844 P   0  0  0  0  0
 21 58  1  0  0  0
 22 59  1  0  0  0
 23 60  1  0  0  0
 24 61  1  0  0  0
 24 21  1  0  0  0
 25 62  1  0  0  0
 26 62  1  0  0  0
 26 27  1  0  0  0
 26 20  1  0  0  0
 27  2  1  0  0  0
 27 29  1  0  0  0
 28  2  1  0  0  0
 29  3  1  0  0  0
 29 33  1  0  0  0
 30  5  1  0  0  0
 30 31  1  0  0  0
 31 32  1  0  0  0
 32  6  1  0  0  0
 33 34  1  0  0  0
 33 20  1  0  0  0
 34  8  1  0  0  0
 35 11  1  0  0  0
 35 36  1  0  0  0
 36 63  1  0  0  0
 37 63  1  0  0  0
 37 38  1  0  0  0
 39 64  1  0  0  0
 41 65  1  0  0  0
 41 38  1  0  0  0
 42 66  1  0  0  0
 43 67  1  0  0  0
 43 40  1  0  0  0
 44 63  1  0  0  0
 44 45  1  0  0  0
 45 46  1  0  0  0
 45 35  1  0  0  0
 46 12  1  0  0  0
 47 15  1  0  0  0
 47 48  1  0  0  0
 48 49  1  0  0  0
 48 17  1  0  0  0
 49 16  1  0  0  0
 50 17  1  0  0  0
 50 68  1  0  0  0
 50 56  1  0  0  0
 51 69  1  0  0  0
 52 70  1  0  0  0
 52 71  1  0  0  0
 53 54  1  0  0  0
 54 72  1  0  0  0
 55 68  1  0  0  0
 56 19  1  0  0  0
 56 47  1  0  0  0
 57 19  1  0  0  0
 58 22  1  0  0  0
 62 23  1  0  0  0
 64 40  1  0  0  0
 68 51  1  0  0  0
 71 53  1  0  0  0
 73  3  1  0  0  0
 73  5  1  0  0  0
 73  7  1  0  0  0
 74  8  1  0  0  0
 74 10  1  0  0  0
 74 11  1  0  0  0
 75 12  1  0  0  0
 75 14  1  0  0  0
 75 15  1  0  0  0
 21  1  2  0  0  0
 22 60  2  0  0  0
 23 24  2  0  0  0
 25 61  2  0  0  0
 38 39  2  0  0  0
 40 41  2  0  0  0
 42 65  2  0  0  0
 43 66  2  0  0  0
 52 69  2  0  0  0
 53 18  2  0  0  0
 54 51  2  0  0  0
 55 72  2  0  0  0
 73  4  2  0  0  0
 74  9  2  0  0  0
 75 13  2  0  0  0
M  END
> <rmsd>
0.618872464

$$$$
CHEMBL384434 PubChem-44413912


 71 79  0  0  0  0  0  0  0  0999 V2000
    0.3048    9.4603  -14.2387 O   0  0  0  0  0
    1.1203   11.2557  -12.5293 O   0  0  0  0  0
    0.9425    8.8171  -11.6013 O   0  0  0  0  0
   -1.5216    7.7360  -10.5312 O   0  0  0  0  0
   -2.7621    5.5332  -12.3828 O   0  0  0  0  0
   -2.8677    2.9135  -12.4010 O   0  0  0  0  0
   -4.5393    4.1788  -13.9923 O   0  0  0  0  0
   -4.7569    2.6060  -16.3664 O   0  0  0  0  0
   -7.0597    0.6135  -16.6552 O   0  0  0  0  0
   -9.0231   -0.6772  -17.8202 O   0  0  0  0  0
   -6.6824   -1.9169  -17.7868 O   0  0  0  0  0
   -5.8491   -4.5374  -17.2510 O   0  0  0  0  0
   -6.7019   -3.3908  -20.1441 O   0  0  0  0  0
   -6.4749   -2.4981  -22.5916 O   0  0  0  0  0
   -7.8576   -4.6979  -22.3023 O   0  0  0  0  0
   -5.1079   -4.6519  -22.0326 O   0  0  0  0  0
   -8.9484   -3.7537  -18.8248 O   0  0  0  0  0
   -7.1732    0.2678  -19.3891 O   0  0  0  0  0
   -4.4577   -0.2577  -14.5783 O   0  0  0  0  0
   -4.8768    4.1384  -11.2441 O   0  0  0  0  0
   -0.2208    4.6911  -10.2032 O   0  0  0  0  0
   -1.2955   10.3459  -12.1681 O   0  0  0  0  0
    0.2911    9.9973  -12.6336 P   0  0  0  0  0
   -3.7372    4.1496  -12.4967 P   0  0  0  0  0
   -7.5284   -0.4467  -17.8976 P   0  0  0  0  0
   -6.5343   -3.7765  -21.7869 P   0  0  0  0  0
    0.3636    7.6069  -11.9916 C   0  0  0  0  0
   -0.3689    6.9823  -10.8178 C   0  0  0  0  0
   -0.7516    5.5554  -11.1606 C   0  0  0  0  0
   -2.2456    5.5283  -11.0832 C   0  0  0  0  0
   -2.5653    6.8180  -10.3439 C   0  0  0  0  0
   -4.1780    8.0522  -11.8555 C   0  0  0  0  0
   -3.9562    8.9704  -13.9890 C   0  0  0  0  0
   -6.0119    9.2154  -12.8033 C   0  0  0  0  0
   -5.4462    8.5024  -11.7562 C   0  0  0  0  0
   -4.9506    7.5023   -9.9495 C   0  0  0  0  0
   -5.2722    2.9898  -14.0527 C   0  0  0  0  0
   -4.6506    2.0554  -15.0755 C   0  0  0  0  0
   -5.3441    0.7109  -15.0468 C   0  0  0  0  0
   -5.6813    0.4344  -16.4822 C   0  0  0  0  0
   -4.9265    1.5147  -17.2360 C   0  0  0  0  0
   -3.3752    0.0179  -18.5540 C   0  0  0  0  0
   -3.7819   -1.7677  -20.0007 C   0  0  0  0  0
   -1.5377   -1.0768  -19.5794 C   0  0  0  0  0
   -2.0413   -0.0945  -18.7377 C   0  0  0  0  0
   -2.3925    1.5085  -17.3932 C   0  0  0  0  0
   -7.3487   -2.6935  -16.8344 C   0  0  0  0  0
   -7.2103   -4.1830  -17.1704 C   0  0  0  0  0
   -7.8972   -4.6019  -18.4599 C   0  0  0  0  0
   -6.7889   -4.6165  -19.4730 C   0  0  0  0  0
   -5.5488   -4.7996  -18.6080 C   0  0  0  0  0
   -3.8466   -6.5973  -18.2068 C   0  0  0  0  0
   -1.8590   -6.5894  -16.9850 C   0  0  0  0  0
   -2.5347   -8.5700  -18.1302 C   0  0  0  0  0
   -3.6595   -7.8851  -18.5678 C   0  0  0  0  0
   -5.4705   -7.2067  -19.4404 C   0  0  0  0  0
   -3.8458    7.4075  -10.7296 N   0  0  0  0  0
   -3.4072    8.2731  -12.9484 N   0  0  0  0  0
   -5.2451    9.4348  -13.9127 N   0  0  0  0  0
   -5.9685    8.1723  -10.5616 N   0  0  0  0  0
   -7.3429    9.7106  -12.7318 N   0  0  0  0  0
   -3.6258    1.0202  -17.7018 N   0  0  0  0  0
   -4.2672   -0.7958  -19.1687 N   0  0  0  0  0
   -2.4301   -1.9036  -20.2006 N   0  0  0  0  0
   -1.3854    0.8351  -18.0186 N   0  0  0  0  0
   -0.1375   -1.2194  -19.7986 N   0  0  0  0  0
   -4.9850   -6.1441  -18.7413 N   0  0  0  0  0
   -2.9705   -5.9224  -17.4225 N   0  0  0  0  0
   -1.6477   -7.8997  -17.3371 N   0  0  0  0  0
   -4.6691   -8.3060  -19.3508 N   0  0  0  0  0
   -2.3055   -9.9276  -18.4903 N   0  0  0  0  0
 23  1  1  0  0  0
 23  3  1  0  0  0
 23 22  1  0  0  0
 24  5  1  0  0  0
 24  7  1  0  0  0
 24 20  1  0  0  0
 25  9  1  0  0  0
 25 11  1  0  0  0
 25 18  1  0  0  0
 26 13  1  0  0  0
 26 15  1  0  0  0
 26 16  1  0  0  0
 27  3  1  0  0  0
 28 27  1  0  0  0
 28 29  1  0  0  0
 28  4  1  0  0  0
 29 30  1  0  0  0
 29 21  1  0  0  0
 30 31  1  0  0  0
 30  5  1  0  0  0
 31 57  1  0  0  0
 31  4  1  0  0  0
 33 58  1  0  0  0
 34 59  1  0  0  0
 34 61  1  0  0  0
 35 60  1  0  0  0
 35 32  1  0  0  0
 36 57  1  0  0  0
 37  7  1  0  0  0
 38 37  1  0  0  0
 38 39  1  0  0  0
 38  8  1  0  0  0
 39 40  1  0  0  0
 39 19  1  0  0  0
 40 41  1  0  0  0
 40  9  1  0  0  0
 41 62  1  0  0  0
 41  8  1  0  0  0
 43 63  1  0  0  0
 44 64  1  0  0  0
 44 66  1  0  0  0
 45 65  1  0  0  0
 45 42  1  0  0  0
 46 62  1  0  0  0
 47 11  1  0  0  0
 48 47  1  0  0  0
 48 49  1  0  0  0
 48 12  1  0  0  0
 49 50  1  0  0  0
 49 17  1  0  0  0
 50 51  1  0  0  0
 50 13  1  0  0  0
 51 67  1  0  0  0
 51 12  1  0  0  0
 53 68  1  0  0  0
 54 69  1  0  0  0
 54 71  1  0  0  0
 55 70  1  0  0  0
 55 52  1  0  0  0
 56 67  1  0  0  0
 57 32  1  0  0  0
 62 42  1  0  0  0
 67 52  1  0  0  0
 23  2  2  0  0  0
 24  6  2  0  0  0
 25 10  2  0  0  0
 26 14  2  0  0  0
 32 58  2  0  0  0
 33 59  2  0  0  0
 34 35  2  0  0  0
 36 60  2  0  0  0
 42 63  2  0  0  0
 43 64  2  0  0  0
 44 45  2  0  0  0
 46 65  2  0  0  0
 52 68  2  0  0  0
 53 69  2  0  0  0
 54 55  2  0  0  0
 56 70  2  0  0  0
M  END
> <rmsd>
0.535600424

$$$$
CHEMBL1159558


 66 73  0  0  0  0  0  0  0  0999 V2000
   -0.1809   -7.8783  -25.9237 O   0  0  0  0  0
    0.9957   -4.0387  -24.1891 O   0  0  0  0  0
   -1.2593   -3.6218  -24.1042 O   0  0  0  0  0
   -3.8818   -2.4946  -23.8670 O   0  0  0  0  0
   -4.4347   -2.2088  -26.0880 O   0  0  0  0  0
   -8.6412   -4.9750  -26.8388 O   0  0  0  0  0
   -9.1931   -6.1267  -24.3394 O   0  0  0  0  0
   -7.5195   -5.5749  -22.1660 O   0  0  0  0  0
   -2.8470   -0.4870  -23.2320 O   0  0  0  0  0
   -5.0806    1.9014  -22.3385 O   0  0  0  0  0
   -9.5866    0.7816  -20.4072 O   0  0  0  0  0
   -9.1054    0.0900  -17.7537 O   0  0  0  0  0
   -6.5021   -0.0024  -16.7884 O   0  0  0  0  0
   -4.5356    2.9241  -17.8207 O   0  0  0  0  0
   -1.9262    2.9949  -16.8548 O   0  0  0  0  0
   -0.3277    0.7049  -16.9799 O   0  0  0  0  0
   -4.9151   -2.4235  -18.4983 O   0  0  0  0  0
   -3.3666   -2.3899  -20.1773 O   0  0  0  0  0
   -0.5892   -3.1726  -21.2431 O   0  0  0  0  0
   -2.2324   -7.7560  -17.6412 O   0  0  0  0  0
   -4.5127   -7.6900  -19.2711 O   0  0  0  0  0
   -4.2351   -5.1843  -20.3451 O   0  0  0  0  0
   -2.9583   -7.6298  -25.7620 O   0  0  0  0  0
   -4.0190   -6.3666  -23.6147 O   0  0  0  0  0
    0.4682   -4.0259  -19.2881 O   0  0  0  0  0
   -0.6576   -7.3154  -24.9047 C   0  0  0  0  0
    0.2650   -6.8902  -23.7984 C   0  0  0  0  0
   -0.3042   -5.6877  -23.0391 C   0  0  0  0  0
   -0.1500   -4.4199  -23.8324 C   0  0  0  0  0
   -1.5085   -2.4435  -23.3513 C   0  0  0  0  0
   -2.6962   -1.6991  -23.9326 C   0  0  0  0  0
   -4.7010   -2.7295  -24.9714 C   0  0  0  0  0
   -5.8774   -3.5972  -24.8150 C   0  0  0  0  0
   -6.7153   -3.8721  -25.9042 C   0  0  0  0  0
   -7.8212   -4.7118  -25.7493 C   0  0  0  0  0
   -8.0950   -5.2870  -24.4993 C   0  0  0  0  0
   -7.2638   -5.0073  -23.4081 C   0  0  0  0  0
   -6.1636   -4.1627  -23.5671 C   0  0  0  0  0
   -3.3547   -0.7286  -21.9367 C   0  0  0  0  0
   -3.4509    0.6052  -21.2185 C   0  0  0  0  0
   -4.8258    1.1737  -21.3433 C   0  0  0  0  0
   -5.8903    0.8939  -20.3473 C   0  0  0  0  0
   -7.2175    0.9628  -20.7911 C   0  0  0  0  0
   -8.2834    0.7040  -19.9325 C   0  0  0  0  0
   -8.0391    0.3681  -18.6032 C   0  0  0  0  0
   -6.7259    0.3135  -18.1242 C   0  0  0  0  0
   -5.6411    0.5791  -18.9821 C   0  0  0  0  0
   -4.2737    0.5834  -18.4092 C   0  0  0  0  0
   -3.7529    1.7746  -17.8690 C   0  0  0  0  0
   -2.4383    1.8143  -17.3862 C   0  0  0  0  0
   -1.6352    0.6694  -17.4481 C   0  0  0  0  0
   -2.1439   -0.5132  -17.9866 C   0  0  0  0  0
   -3.4586   -0.5699  -18.4582 C   0  0  0  0  0
   -3.9451   -1.8308  -19.0369 C   0  0  0  0  0
   -2.5066   -1.7069  -21.0835 C   0  0  0  0  0
   -1.7980   -2.8010  -21.8934 C   0  0  0  0  0
   -0.4833   -4.1935  -20.2878 C   0  0  0  0  0
   -1.2587   -5.2997  -20.2728 C   0  0  0  0  0
   -1.3163   -6.1032  -19.0327 C   0  0  0  0  0
   -2.2539   -7.0345  -18.8283 C   0  0  0  0  0
   -3.2977   -7.3577  -19.8762 C   0  0  0  0  0
   -3.5038   -6.2340  -20.9046 C   0  0  0  0  0
   -2.1677   -5.7290  -21.3727 C   0  0  0  0  0
   -1.7451   -5.9422  -22.6449 C   0  0  0  0  0
   -2.6382   -6.5038  -23.7062 C   0  0  0  0  0
   -2.1168   -7.1324  -24.7718 C   0  0  0  0  0
 27 26  1  0  0  0
 27 28  1  0  0  0
 28 29  1  0  0  0
 28 64  1  0  0  0
 29  3  1  0  0  0
 30  3  1  0  0  0
 30 31  1  0  0  0
 31  4  1  0  0  0
 31  9  1  0  0  0
 32  4  1  0  0  0
 32 33  1  0  0  0
 34 35  1  0  0  0
 35  6  1  0  0  0
 36  7  1  0  0  0
 36 37  1  0  0  0
 37  8  1  0  0  0
 38 33  1  0  0  0
 39  9  1  0  0  0
 39 40  1  0  0  0
 40 41  1  0  0  0
 41 42  1  0  0  0
 43 44  1  0  0  0
 44 11  1  0  0  0
 45 12  1  0  0  0
 45 46  1  0  0  0
 46 13  1  0  0  0
 47 48  1  0  0  0
 47 42  1  0  0  0
 49 14  1  0  0  0
 49 50  1  0  0  0
 50 15  1  0  0  0
 51 16  1  0  0  0
 51 52  1  0  0  0
 53 54  1  0  0  0
 53 48  1  0  0  0
 54 18  1  0  0  0
 55 18  1  0  0  0
 55 56  1  0  0  0
 55 39  1  0  0  0
 56 19  1  0  0  0
 56 30  1  0  0  0
 57 19  1  0  0  0
 57 25  1  0  0  0
 58 59  1  0  0  0
 60 20  1  0  0  0
 61 60  1  0  0  0
 61 21  1  0  0  0
 61 62  1  0  0  0
 62 22  1  0  0  0
 62 63  1  0  0  0
 63 58  1  0  0  0
 64 65  1  0  0  0
 65 24  1  0  0  0
 66 23  1  0  0  0
 66 26  1  0  0  0
 26  1  2  0  0  0
 29  2  2  0  0  0
 32  5  2  0  0  0
 33 34  2  0  0  0
 35 36  2  0  0  0
 37 38  2  0  0  0
 41 10  2  0  0  0
 42 43  2  0  0  0
 44 45  2  0  0  0
 46 47  2  0  0  0
 48 49  2  0  0  0
 50 51  2  0  0  0
 52 53  2  0  0  0
 54 17  2  0  0  0
 57 58  2  0  0  0
 59 60  2  0  0  0
 63 64  2  0  0  0
 65 66  2  0  0  0
M  END
> <rmsd>
0.70278722

$$$$
CHEMBL2221111 PubChem-53248803


 44 46  0  0  0  0  0  0  0  0999 V2000
   -1.4639    5.4713  -16.3194 O   0  0  0  0  0
   -3.2138   -1.2712  -19.3015 O   0  0  0  0  0
   -3.8603   -3.4782  -19.5117 O   0  0  0  0  0
   -4.9827   -6.6419  -18.2756 O   0  0  0  0  0
   -3.9862   -8.6960  -19.5515 O   0  0  0  0  0
   -4.7400   -9.0103  -17.2431 O   0  0  0  0  0
   -2.5270   -7.7135  -17.6284 O   0  0  0  0  0
   -7.1144   -5.0897  -19.3221 O   0  0  0  0  0
   -8.7564   -6.9167  -20.1641 O   0  0  0  0  0
   -6.4908   -6.9208  -21.0886 O   0  0  0  0  0
   -8.1491   -5.0827  -21.8887 O   0  0  0  0  0
   -7.6948   -2.5527  -20.5806 O   0  0  0  0  0
   -9.4012   -3.2623  -18.7252 O   0  0  0  0  0
  -10.1649   -1.7567  -20.4973 O   0  0  0  0  0
   -8.6135   -0.7827  -18.6643 O   0  0  0  0  0
   -5.8994   -0.4921  -19.6997 O   0  0  0  0  0
   -6.3466    1.7595  -20.9127 O   0  0  0  0  0
   -4.3559    0.4951  -21.5681 O   0  0  0  0  0
   -6.6831   -0.3722  -22.3487 O   0  0  0  0  0
   -4.7954   -0.6903  -16.9424 O   0  0  0  0  0
   -6.6816    0.8420  -15.9410 O   0  0  0  0  0
   -6.7541   -1.5547  -15.4312 O   0  0  0  0  0
   -4.9570   -0.1055  -14.2385 O   0  0  0  0  0
   -2.4925    3.4958  -16.5583 O   0  0  0  0  0
   -1.5905    4.3920  -16.9530 C   0  0  0  0  0
   -0.7847    4.1435  -18.0690 C   0  0  0  0  0
   -0.9432    2.9441  -18.7613 C   0  0  0  0  0
   -1.8963    2.0267  -18.3254 C   0  0  0  0  0
   -2.0917    0.8203  -18.9955 C   0  0  0  0  0
   -3.0614   -0.0896  -18.5583 C   0  0  0  0  0
   -4.2866   -2.1929  -19.1419 C   0  0  0  0  0
   -4.8268   -4.3765  -19.0249 C   0  0  0  0  0
   -4.2701   -5.7874  -19.1201 C   0  0  0  0  0
   -6.1350   -4.2263  -19.8278 C   0  0  0  0  0
   -6.6259   -2.7763  -19.7071 C   0  0  0  0  0
   -5.4901   -1.7943  -20.0051 C   0  0  0  0  0
   -3.8370    0.2165  -17.4098 C   0  0  0  0  0
   -3.6315    1.4358  -16.7438 C   0  0  0  0  0
   -2.6722    2.3410  -17.1941 C   0  0  0  0  0
   -4.0728   -8.0566  -18.1928 S   0  0  0  0  0
   -7.6192   -6.0465  -20.6185 S   0  0  0  0  0
   -9.0055   -2.1142  -19.6121 S   0  0  0  0  0
   -5.7921    0.3817  -21.1387 S   0  0  0  0  0
   -5.8505   -0.3721  -15.6357 S   0  0  0  0  0
 25 26  1  0  0  0
 25 24  1  0  0  0
 27 28  1  0  0  0
 29 30  1  0  0  0
 30  2  1  0  0  0
 31  2  1  0  0  0
 31  3  1  0  0  0
 32  3  1  0  0  0
 32 33  1  0  0  0
 32 34  1  0  0  0
 33  4  1  0  0  0
 34  8  1  0  0  0
 34 35  1  0  0  0
 35 12  1  0  0  0
 35 36  1  0  0  0
 36 16  1  0  0  0
 36 31  1  0  0  0
 37 20  1  0  0  0
 37 38  1  0  0  0
 39 24  1  0  0  0
 39 28  1  0  0  0
 40  4  1  0  0  0
 40  7  1  0  0  0
 41  8  1  0  0  0
 41 11  1  0  0  0
 42 12  1  0  0  0
 42 15  1  0  0  0
 43 16  1  0  0  0
 43 19  1  0  0  0
 44 20  1  0  0  0
 44 23  1  0  0  0
 25  1  2  0  0  0
 26 27  2  0  0  0
 28 29  2  0  0  0
 30 37  2  0  0  0
 38 39  2  0  0  0
 40  5  2  0  0  0
 40  6  2  0  0  0
 41  9  2  0  0  0
 41 10  2  0  0  0
 42 13  2  0  0  0
 42 14  2  0  0  0
 43 17  2  0  0  0
 43 18  2  0  0  0
 44 21  2  0  0  0
 44 22  2  0  0  0
M  END
> <rmsd>
0.690167308

$$$$
CHEMBL2058764 PubChem-56950527


 90101  0  0  0  0  0  0  0  0999 V2000
   -8.8442  -14.6806  -19.2292 C   0  0  0  0  0
   -8.7034  -16.0642  -18.6035 C   0  0  0  0  0
   -9.9809  -16.4761  -17.9047 C   0  0  0  0  0
   -9.5088  -16.9555  -16.5563 C   0  0  0  0  0
   -8.0078  -17.0416  -16.7236 C   0  0  0  0  0
   -7.3975  -15.6393  -14.7046 C   0  0  0  0  0
   -6.1382  -16.9729  -13.6368 C   0  0  0  0  0
   -5.2884  -17.6321  -12.7588 C   0  0  0  0  0
   -5.3055  -19.4942  -14.2536 C   0  0  0  0  0
   -6.5383  -17.5857  -14.7720 C   0  0  0  0  0
   -9.9853  -13.2462  -17.9396 C   0  0  0  0  0
   -8.2539  -10.9397  -19.3880 C   0  0  0  0  0
   -7.1080  -10.4706  -18.5173 C   0  0  0  0  0
   -6.4992   -9.3501  -19.3197 C   0  0  0  0  0
   -5.0020   -9.2860  -19.0642 C   0  0  0  0  0
   -5.5394   -5.3235  -17.9279 C   0  0  0  0  0
   -5.4104   -4.4461  -16.7106 C   0  0  0  0  0
   -6.7370   -3.7246  -16.6453 C   0  0  0  0  0
   -6.5231   -2.2284  -16.4411 C   0  0  0  0  0
   -5.8869    1.5398  -19.1394 C   0  0  0  0  0
   -6.3750    2.7230  -19.9318 C   0  0  0  0  0
   -5.4050    2.8162  -21.0766 C   0  0  0  0  0
   -5.1891    4.2737  -21.4444 C   0  0  0  0  0
   -4.4897    1.2989  -19.6728 C   0  0  0  0  0
   -2.9224    0.3662  -17.9445 C   0  0  0  0  0
   -2.2095    2.1200  -16.9886 C   0  0  0  0  0
   -1.5561    3.0901  -16.2407 C   0  0  0  0  0
   -2.6625    4.7455  -17.5573 C   0  0  0  0  0
   -3.0608    2.4868  -17.9713 C   0  0  0  0  0
   -6.9952   -5.1824  -18.3238 C   0  0  0  0  0
   -7.6744   -6.2151  -20.5132 C   0  0  0  0  0
   -6.9101   -4.8177  -21.9181 C   0  0  0  0  0
   -6.4775   -4.1088  -23.0300 C   0  0  0  0  0
   -5.5727   -2.4725  -21.5382 C   0  0  0  0  0
   -6.6505   -4.3497  -20.6771 C   0  0  0  0  0
   -7.9938  -10.2553  -20.7154 C   0  0  0  0  0
   -7.2142  -12.3038  -21.9814 C   0  0  0  0  0
   -8.4801  -12.2432  -23.6875 C   0  0  0  0  0
   -9.1440  -12.4146  -24.8933 C   0  0  0  0  0
  -10.4229  -10.4672  -24.3827 C   0  0  0  0  0
   -8.7991  -11.2057  -22.8842 C   0  0  0  0  0
  -10.5963  -17.4977  -18.6335 O   0  0  0  0  0
  -10.0329  -18.2076  -16.2201 O   0  0  0  0  0
   -7.6257  -16.1045  -17.6979 O   0  0  0  0  0
   -8.6919  -13.6580  -18.2814 O   0  0  0  0  0
  -11.9071  -11.4382  -18.5176 O   0  0  0  0  0
  -10.6549  -12.3876  -20.5949 O   0  0  0  0  0
   -9.4931  -10.5230  -18.8813 O   0  0  0  0  0
   -4.4320   -8.2403  -19.7981 O   0  0  0  0  0
   -2.8422   -7.6825  -17.7770 O   0  0  0  0  0
   -3.2991   -5.7518  -19.4755 O   0  0  0  0  0
   -5.2485   -6.6629  -17.6534 O   0  0  0  0  0
   -6.0373   -1.6366  -17.6074 O   0  0  0  0  0
   -8.4849   -0.6640  -17.8328 O   0  0  0  0  0
   -6.7428    0.8437  -16.5991 O   0  0  0  0  0
   -6.6691    0.4046  -19.3711 O   0  0  0  0  0
   -4.4589    4.3592  -22.6343 O   0  0  0  0  0
   -6.7272    5.1372  -23.7538 O   0  0  0  0  0
   -5.1745    7.0324  -22.8379 O   0  0  0  0  0
   -4.5411    5.6073  -25.1036 O   0  0  0  0  0
   -4.1878    2.2281  -20.6880 O   0  0  0  0  0
   -7.6698    2.5354  -20.4120 O   0  0  0  0  0
   -7.4706   -3.9602  -17.8219 O   0  0  0  0  0
   -5.2366   -5.1976  -15.5457 O   0  0  0  0  0
   -6.7460   -9.6085  -20.6742 O   0  0  0  0  0
   -7.5521   -9.9883  -17.2828 O   0  0  0  0  0
   -7.3368  -16.7690  -15.4582 N   0  0  0  0  0
   -6.6610  -15.7334  -13.5601 N   0  0  0  0  0
   -4.8620  -17.0318  -11.5415 N   0  0  0  0  0
   -4.8910  -18.8962  -13.0895 N   0  0  0  0  0
   -6.1389  -18.8349  -15.1126 N   0  0  0  0  0
   -3.5166    1.3949  -18.5932 N   0  0  0  0  0
   -2.1024    0.7824  -16.9376 N   0  0  0  0  0
   -0.6463    2.7453  -15.1991 N   0  0  0  0  0
   -1.8017    4.3968  -16.5449 N   0  0  0  0  0
   -3.3054    3.7827  -18.2864 N   0  0  0  0  0
   -7.1209   -5.2164  -19.7743 N   0  0  0  0  0
   -7.5591   -5.9981  -21.8541 N   0  0  0  0  0
   -6.7052   -4.5883  -24.3568 N   0  0  0  0  0
   -5.8086   -2.9328  -22.8114 N   0  0  0  0  0
   -5.9898   -3.1878  -20.4502 N   0  0  0  0  0
   -8.0163  -11.2215  -21.8043 N   0  0  0  0  0
   -7.4760  -12.9604  -23.1471 N   0  0  0  0  0
   -8.8251  -13.4827  -25.7766 N   0  0  0  0  0
  -10.1196  -11.5160  -25.2162 N   0  0  0  0  0
   -9.7549  -10.3001  -23.2001 N   0  0  0  0  0
  -10.5356  -11.8623  -18.9892 P   0  0  0  0  0
   -3.9349   -7.0931  -18.6487 P   0  0  0  0  0
   -7.0205   -0.2695  -17.8492 P   0  0  0  0  0
   -5.2690    5.5152  -23.5783 P   0  0  0  0  0
  1 45  1  0  0  0
  2  1  1  0  0  0
  2  3  1  0  0  0
  2 44  1  0  0  0
  3 42  1  0  0  0
  3  4  1  0  0  0
  4 43  1  0  0  0
  4  5  1  0  0  0
  5 44  1  0  0  0
  5 67  1  0  0  0
  7 68  1  0  0  0
  8 69  1  0  0  0
  8 70  1  0  0  0
  9 71  1  0  0  0
 10 67  1  0  0  0
 10  7  1  0  0  0
 11 45  1  0  0  0
 11 87  1  0  0  0
 12 48  1  0  0  0
 12 13  1  0  0  0
 13 14  1  0  0  0
 13 66  1  0  0  0
 14 15  1  0  0  0
 14 65  1  0  0  0
 15 49  1  0  0  0
 16 52  1  0  0  0
 16 17  1  0  0  0
 17 18  1  0  0  0
 17 64  1  0  0  0
 18 19  1  0  0  0
 18 63  1  0  0  0
 19 53  1  0  0  0
 20 56  1  0  0  0
 20 21  1  0  0  0
 21 22  1  0  0  0
 21 62  1  0  0  0
 22 23  1  0  0  0
 22 61  1  0  0  0
 23 57  1  0  0  0
 24 61  1  0  0  0
 24 72  1  0  0  0
 24 20  1  0  0  0
 26 73  1  0  0  0
 27 74  1  0  0  0
 27 75  1  0  0  0
 28 76  1  0  0  0
 29 72  1  0  0  0
 29 26  1  0  0  0
 30 63  1  0  0  0
 30 77  1  0  0  0
 30 16  1  0  0  0
 32 78  1  0  0  0
 33 79  1  0  0  0
 33 80  1  0  0  0
 34 81  1  0  0  0
 35 77  1  0  0  0
 35 32  1  0  0  0
 36 65  1  0  0  0
 36 82  1  0  0  0
 36 12  1  0  0  0
 38 83  1  0  0  0
 39 84  1  0  0  0
 39 85  1  0  0  0
 40 86  1  0  0  0
 41 82  1  0  0  0
 41 38  1  0  0  0
 67  6  1  0  0  0
 72 25  1  0  0  0
 77 31  1  0  0  0
 82 37  1  0  0  0
 87 47  1  0  0  0
 87 48  1  0  0  0
 88 49  1  0  0  0
 88 51  1  0  0  0
 88 52  1  0  0  0
 89 53  1  0  0  0
 89 55  1  0  0  0
 89 56  1  0  0  0
 90 57  1  0  0  0
 90 59  1  0  0  0
 90 60  1  0  0  0
  6 68  2  0  0  0
  7  8  2  0  0  0
  9 70  2  0  0  0
 10 71  2  0  0  0
 25 73  2  0  0  0
 26 27  2  0  0  0
 28 75  2  0  0  0
 29 76  2  0  0  0
 31 78  2  0  0  0
 32 33  2  0  0  0
 34 80  2  0  0  0
 35 81  2  0  0  0
 37 83  2  0  0  0
 38 39  2  0  0  0
 40 85  2  0  0  0
 41 86  2  0  0  0
 87 46  2  0  0  0
 88 50  2  0  0  0
 89 54  2  0  0  0
 90 58  2  0  0  0
M  END
> <rmsd>
0.752848804

$$$$
CHEMBL373388 PubChem-44413911


 71 79  0  0  0  0  0  0  0  0999 V2000
    3.9053  -14.6554  -19.6464 O   0  0  0  0  0
    3.3472  -12.1703  -19.0417 O   0  0  0  0  0
    1.3726  -13.9195  -18.8265 O   0  0  0  0  0
   -1.2031  -13.9916  -19.8656 O   0  0  0  0  0
   -3.2191  -11.5541  -21.2772 O   0  0  0  0  0
   -5.2360  -10.9314  -19.6816 O   0  0  0  0  0
   -5.3891  -10.1081  -22.1601 O   0  0  0  0  0
   -7.3636   -8.9814  -20.4102 O   0  0  0  0  0
   -7.4999   -5.6281  -21.4802 O   0  0  0  0  0
   -6.8802   -3.0912  -21.5035 O   0  0  0  0  0
   -5.6591   -4.5728  -19.7066 O   0  0  0  0  0
   -3.7685   -2.0258  -17.9972 O   0  0  0  0  0
   -6.5202   -0.2300  -16.6989 O   0  0  0  0  0
   -8.6824   -0.1363  -18.1944 O   0  0  0  0  0
   -6.9749    1.8217  -18.5278 O   0  0  0  0  0
   -8.5244    1.6153  -16.2614 O   0  0  0  0  0
   -6.8461   -2.7906  -16.9568 O   0  0  0  0  0
   -5.0446   -4.7239  -22.4074 O   0  0  0  0  0
   -8.1938   -7.3478  -23.2737 O   0  0  0  0  0
   -5.6858  -12.7866  -21.4749 O   0  0  0  0  0
   -1.0944  -10.5194  -20.2623 O   0  0  0  0  0
    2.3478  -13.0812  -21.2875 O   0  0  0  0  0
    2.7556  -13.4112  -19.6765 P   0  0  0  0  0
   -4.8960  -11.3364  -21.1002 P   0  0  0  0  0
   -6.2821   -4.4629  -21.2806 P   0  0  0  0  0
   -7.6993    0.7383  -17.4481 P   0  0  0  0  0
    0.5408  -12.8003  -18.7077 C   0  0  0  0  0
   -0.4973  -12.7816  -19.8207 C   0  0  0  0  0
   -1.4961  -11.6736  -19.5859 C   0  0  0  0  0
   -2.7874  -12.2431  -20.1349 C   0  0  0  0  0
   -2.4125  -13.6696  -20.4997 C   0  0  0  0  0
   -4.1263  -15.4546  -20.8635 C   0  0  0  0  0
   -4.8023  -16.5751  -22.7918 C   0  0  0  0  0
   -5.8338  -17.0888  -20.7009 C   0  0  0  0  0
   -5.0104  -16.1418  -20.1092 C   0  0  0  0  0
   -3.9633  -14.7968  -18.8434 C   0  0  0  0  0
   -6.7657  -10.2842  -22.3444 C   0  0  0  0  0
   -7.5490   -9.0961  -21.7990 C   0  0  0  0  0
   -7.1375   -7.8019  -22.4797 C   0  0  0  0  0
   -6.8619   -6.8649  -21.3271 C   0  0  0  0  0
   -7.4227   -7.6081  -20.1349 C   0  0  0  0  0
   -5.3582   -7.4847  -18.6875 C   0  0  0  0  0
   -3.1232   -8.0266  -19.0797 C   0  0  0  0  0
   -3.7647   -7.0906  -16.9809 C   0  0  0  0  0
   -5.0711   -7.0438  -17.4451 C   0  0  0  0  0
   -7.1476   -6.7523  -17.7872 C   0  0  0  0  0
   -4.7310   -3.5364  -19.5847 C   0  0  0  0  0
   -4.8262   -2.9336  -18.1938 C   0  0  0  0  0
   -6.1548   -2.2186  -18.0289 C   0  0  0  0  0
   -5.7621   -0.7914  -17.7359 C   0  0  0  0  0
   -4.3150   -0.9270  -17.3159 C   0  0  0  0  0
   -2.2709    0.5188  -17.2256 C   0  0  0  0  0
   -0.1789    0.1607  -16.2582 C   0  0  0  0  0
   -0.6166    2.2065  -17.4056 C   0  0  0  0  0
   -1.8953    1.7371  -17.6697 C   0  0  0  0  0
   -3.8973    1.3958  -18.2806 C   0  0  0  0  0
   -3.4564  -14.5992  -20.0886 N   0  0  0  0  0
   -3.9962  -15.6429  -22.1984 N   0  0  0  0  0
   -5.7096  -17.2875  -22.0469 N   0  0  0  0  0
   -4.9369  -15.7523  -18.8224 N   0  0  0  0  0
   -6.7810  -17.8310  -19.9407 N   0  0  0  0  0
   -6.6636   -7.3065  -18.9283 N   0  0  0  0  0
   -4.4139   -7.9725  -19.5295 N   0  0  0  0  0
   -2.8064   -7.5889  -17.8182 N   0  0  0  0  0
   -6.1808   -6.5746  -16.8422 N   0  0  0  0  0
   -3.4241   -6.6280  -15.6786 N   0  0  0  0  0
   -3.5320    0.2763  -17.5986 N   0  0  0  0  0
   -1.4432   -0.2915  -16.5215 N   0  0  0  0  0
    0.2253    1.3969  -16.6973 N   0  0  0  0  0
   -2.9011    2.3239  -18.3434 N   0  0  0  0  0
   -0.1870    3.4866  -17.8553 N   0  0  0  0  0
 23  1  1  0  0  0
 23  3  1  0  0  0
 23 22  1  0  0  0
 24  5  1  0  0  0
 24  7  1  0  0  0
 24 20  1  0  0  0
 25  9  1  0  0  0
 25 11  1  0  0  0
 25 18  1  0  0  0
 26 13  1  0  0  0
 26 15  1  0  0  0
 26 16  1  0  0  0
 27  3  1  0  0  0
 28 27  1  0  0  0
 28 29  1  0  0  0
 28  4  1  0  0  0
 29 30  1  0  0  0
 29 21  1  0  0  0
 30 31  1  0  0  0
 30  5  1  0  0  0
 31 57  1  0  0  0
 31  4  1  0  0  0
 33 58  1  0  0  0
 34 59  1  0  0  0
 34 61  1  0  0  0
 35 60  1  0  0  0
 35 32  1  0  0  0
 36 57  1  0  0  0
 37  7  1  0  0  0
 38 37  1  0  0  0
 38 39  1  0  0  0
 38  8  1  0  0  0
 39 40  1  0  0  0
 39 19  1  0  0  0
 40 41  1  0  0  0
 40  9  1  0  0  0
 41 62  1  0  0  0
 41  8  1  0  0  0
 43 63  1  0  0  0
 44 64  1  0  0  0
 44 66  1  0  0  0
 45 65  1  0  0  0
 45 42  1  0  0  0
 46 62  1  0  0  0
 47 11  1  0  0  0
 48 47  1  0  0  0
 48 49  1  0  0  0
 48 12  1  0  0  0
 49 50  1  0  0  0
 49 17  1  0  0  0
 50 51  1  0  0  0
 50 13  1  0  0  0
 51 67  1  0  0  0
 51 12  1  0  0  0
 53 68  1  0  0  0
 54 69  1  0  0  0
 54 71  1  0  0  0
 55 70  1  0  0  0
 55 52  1  0  0  0
 56 67  1  0  0  0
 57 32  1  0  0  0
 62 42  1  0  0  0
 67 52  1  0  0  0
 23  2  2  0  0  0
 24  6  2  0  0  0
 25 10  2  0  0  0
 26 14  2  0  0  0
 32 58  2  0  0  0
 33 59  2  0  0  0
 34 35  2  0  0  0
 36 60  2  0  0  0
 42 63  2  0  0  0
 43 64  2  0  0  0
 44 45  2  0  0  0
 46 65  2  0  0  0
 52 68  2  0  0  0
 53 69  2  0  0  0
 54 55  2  0  0  0
 56 70  2  0  0  0
M  END
> <rmsd>
0.703823686

$$$$
CHEMBL2325749 PubChem-136218721


 79 84  0  0  0  0  0  0  0  0999 V2000
   -4.2519   -9.7310  -16.6328 N   0  0  0  0  0
   -6.9929   -9.1167  -17.1651 N   0  0  0  0  0
   -6.1588   -4.8015  -20.7144 N   0  0  0  0  0
   -4.5607   -4.4505  -22.4945 N   0  0  0  0  0
   -5.5197   -4.4717  -24.6744 N   0  0  0  0  0
   -7.9898   -5.0168  -22.0340 N   0  0  0  0  0
   -3.1334   -4.1308  -24.4189 N   0  0  0  0  0
   -7.6492   -0.0063  -21.1444 N   0  0  0  0  0
   -7.1677    0.9465  -18.4950 N   0  0  0  0  0
   -5.3472   -8.5211  -17.2848 P   0  0  0  0  0
   -7.5539   -0.4741  -19.4580 P   0  0  0  0  0
   -5.0244   -8.2755  -18.7396 O   0  0  0  0  0
   -7.8881  -11.4213  -15.6183 O   0  0  0  0  0
   -6.3087  -10.6304  -14.1202 O   0  0  0  0  0
   -4.4087   -6.0576  -17.0688 O   0  0  0  0  0
   -7.7635   -4.8009  -24.9197 O   0  0  0  0  0
   -6.3113   -2.3249  -17.9903 O   0  0  0  0  0
   -8.9033   -1.0030  -19.0310 O   0  0  0  0  0
   -5.5008    2.4941  -21.8079 O   0  0  0  0  0
   -7.0124    1.8216  -23.4187 O   0  0  0  0  0
   -7.0735    0.5900  -15.8519 O   0  0  0  0  0
   -4.7952    0.2761  -15.6938 O   0  0  0  0  0
   -1.6369   -8.1529  -18.1175 O   0  0  0  0  0
   -1.7914  -10.4609  -18.1162 O   0  0  0  0  0
   -7.3606   -9.0901  -15.7588 C   0  0  0  0  0
   -7.2181  -10.4490  -15.1634 C   0  0  0  0  0
   -6.0866  -11.9047  -13.5376 C   0  0  0  0  0
   -4.8924  -11.8457  -12.6130 C   0  0  0  0  0
   -8.7718   -8.5584  -15.5988 C   0  0  0  0  0
   -8.9108   -7.8088  -14.3180 C   0  0  0  0  0
   -9.0063   -6.4133  -14.3421 C   0  0  0  0  0
   -9.1356   -5.6949  -13.1510 C   0  0  0  0  0
   -9.1675   -6.3720  -11.9301 C   0  0  0  0  0
   -9.0758   -7.7687  -11.9022 C   0  0  0  0  0
   -8.9493   -8.4889  -13.0965 C   0  0  0  0  0
   -5.2061   -6.9557  -16.3645 C   0  0  0  0  0
   -5.1069   -4.8461  -17.0408 C   0  0  0  0  0
   -6.0593   -4.7419  -18.2242 C   0  0  0  0  0
   -5.2854   -4.6961  -19.5453 C   0  0  0  0  0
   -5.8020   -4.6737  -21.9958 C   0  0  0  0  0
   -4.4237   -4.3498  -23.8537 C   0  0  0  0  0
   -6.7663   -4.6938  -24.1611 C   0  0  0  0  0
   -6.8919   -4.7984  -22.7815 C   0  0  0  0  0
   -7.5018   -5.0108  -20.7618 C   0  0  0  0  0
   -7.0020   -3.5421  -18.0596 C   0  0  0  0  0
   -6.3274   -1.8160  -19.2907 C   0  0  0  0  0
   -6.2970    0.2663  -21.6012 C   0  0  0  0  0
   -5.8486   -0.8363  -22.5417 C   0  0  0  0  0
   -4.3569   -0.9372  -22.5768 C   0  0  0  0  0
   -3.6694   -0.6842  -23.7663 C   0  0  0  0  0
   -2.2746   -0.7957  -23.8138 C   0  0  0  0  0
   -1.5672   -1.1665  -22.6631 C   0  0  0  0  0
   -2.2542   -1.4243  -21.4743 C   0  0  0  0  0
   -3.6470   -1.3165  -21.4319 C   0  0  0  0  0
   -6.2440    1.5919  -22.2784 C   0  0  0  0  0
   -7.0409    3.0825  -24.0619 C   0  0  0  0  0
   -7.8798    2.9827  -25.3190 C   0  0  0  0  0
   -5.8461    0.7843  -17.9116 C   0  0  0  0  0
   -5.0170    2.0224  -18.2201 C   0  0  0  0  0
   -3.5605    1.7741  -17.9979 C   0  0  0  0  0
   -2.8594    0.8608  -18.7983 C   0  0  0  0  0
   -1.4977    0.6372  -18.5768 C   0  0  0  0  0
   -0.8346    1.3182  -17.5476 C   0  0  0  0  0
   -1.5305    2.2324  -16.7472 C   0  0  0  0  0
   -2.8894    2.4643  -16.9793 C   0  0  0  0  0
   -5.9494    0.5530  -16.4261 C   0  0  0  0  0
   -4.8255    0.1014  -14.2903 C   0  0  0  0  0
   -3.4192   -0.1679  -13.7921 C   0  0  0  0  0
   -2.9621   -9.1026  -16.3723 C   0  0  0  0  0
   -2.0866   -9.2048  -17.5818 C   0  0  0  0  0
   -0.9817  -10.6131  -19.2733 C   0  0  0  0  0
   -0.8522  -12.0865  -19.6165 C   0  0  0  0  0
   -2.3145   -9.7884  -15.1757 C   0  0  0  0  0
   -1.2894   -8.9152  -14.5259 C   0  0  0  0  0
   -0.0332   -8.7245  -15.1193 C   0  0  0  0  0
    0.9326   -7.9337  -14.4856 C   0  0  0  0  0
    0.6479   -7.3399  -13.2528 C   0  0  0  0  0
   -0.6012   -7.5444  -12.6536 C   0  0  0  0  0
   -1.5672   -8.3315  -13.2879 C   0  0  0  0  0
  3 40  1  0  0  0
  5 42  1  0  0  0
 10  1  1  0  0  0
 10  2  1  0  0  0
 10 36  1  0  0  0
 11  8  1  0  0  0
 11  9  1  0  0  0
 25  2  1  0  0  0
 25 26  1  0  0  0
 25 29  1  0  0  0
 26 14  1  0  0  0
 27 14  1  0  0  0
 27 28  1  0  0  0
 29 30  1  0  0  0
 31 32  1  0  0  0
 33 34  1  0  0  0
 35 30  1  0  0  0
 36 15  1  0  0  0
 37 15  1  0  0  0
 37 38  1  0  0  0
 38 39  1  0  0  0
 38 45  1  0  0  0
 39  3  1  0  0  0
 40  4  1  0  0  0
 41  5  1  0  0  0
 41  7  1  0  0  0
 42 43  1  0  0  0
 43  6  1  0  0  0
 44  3  1  0  0  0
 45 17  1  0  0  0
 46 17  1  0  0  0
 46 11  1  0  0  0
 47  8  1  0  0  0
 47 48  1  0  0  0
 47 55  1  0  0  0
 48 49  1  0  0  0
 50 51  1  0  0  0
 52 53  1  0  0  0
 54 49  1  0  0  0
 55 20  1  0  0  0
 56 20  1  0  0  0
 56 57  1  0  0  0
 58  9  1  0  0  0
 58 59  1  0  0  0
 58 66  1  0  0  0
 59 60  1  0  0  0
 61 62  1  0  0  0
 63 64  1  0  0  0
 65 60  1  0  0  0
 66 22  1  0  0  0
 67 22  1  0  0  0
 67 68  1  0  0  0
 69  1  1  0  0  0
 69 70  1  0  0  0
 69 73  1  0  0  0
 70 24  1  0  0  0
 71 24  1  0  0  0
 71 72  1  0  0  0
 73 74  1  0  0  0
 75 76  1  0  0  0
 77 78  1  0  0  0
 79 74  1  0  0  0
 10 12  2  0  0  0
 11 18  2  0  0  0
 26 13  2  0  0  0
 30 31  2  0  0  0
 32 33  2  0  0  0
 34 35  2  0  0  0
 41  4  2  0  0  0
 42 16  2  0  0  0
 43 40  2  0  0  0
 44  6  2  0  0  0
 49 50  2  0  0  0
 51 52  2  0  0  0
 53 54  2  0  0  0
 55 19  2  0  0  0
 60 61  2  0  0  0
 62 63  2  0  0  0
 64 65  2  0  0  0
 66 21  2  0  0  0
 70 23  2  0  0  0
 74 75  2  0  0  0
 76 77  2  0  0  0
 78 79  2  0  0  0
M  END
> <rmsd>
0.735773444

$$$$
CHEMBL4117980 PubChem-137657166


 90 97  0  0  0  0  0  0  0  0999 V2000
    2.7942   11.7733  -11.8743 O   0  0  0  0  0
    0.7452   10.1987  -11.5679 O   0  0  0  0  0
    1.9164   10.9854   -9.5555 O   0  0  0  0  0
    0.4144   12.7149  -10.8485 O   0  0  0  0  0
   -2.9654   10.3780   -8.2222 O   0  0  0  0  0
   -3.1005    4.0323  -17.8110 O   0  0  0  0  0
   -5.1322    2.5693  -18.4648 O   0  0  0  0  0
   -2.9342   -0.7773  -18.2178 O   0  0  0  0  0
    0.9941    1.6337  -16.9045 O   0  0  0  0  0
    2.1626   -0.3293  -18.1919 O   0  0  0  0  0
    1.3685   -0.7758  -15.9065 O   0  0  0  0  0
    3.4962    0.6873  -16.2035 O   0  0  0  0  0
   -6.1110   -6.1697  -19.6403 O   0  0  0  0  0
   -8.1259   -5.7733  -21.2868 O   0  0  0  0  0
   -7.8759   -8.0088  -20.2869 O   0  0  0  0  0
   -8.7355   -6.0692  -18.7718 O   0  0  0  0  0
   -3.3492   -5.6800  -18.8521 O   0  0  0  0  0
   -2.4366   -7.9388  -17.8912 O   0  0  0  0  0
   -4.1589   -8.0719  -19.6295 O   0  0  0  0  0
   -4.8756   -7.3395  -17.2243 O   0  0  0  0  0
   -6.3663    0.1972  -19.0111 O   0  0  0  0  0
   -7.7601    2.0508  -17.7458 O   0  0  0  0  0
   -7.3298   -0.0616  -16.5751 O   0  0  0  0  0
   -9.0648   -0.0595  -18.5145 O   0  0  0  0  0
   -4.9932   11.8489   -7.5130 O   0  0  0  0  0
   -3.4371   15.0534   -9.3619 O   0  0  0  0  0
   -6.9171   20.3709   -8.5826 O   0  0  0  0  0
   -7.1830   21.0041  -11.1198 O   0  0  0  0  0
   -5.2599   21.9177   -9.8984 O   0  0  0  0  0
   -7.6078   22.9174   -9.4047 O   0  0  0  0  0
   -7.0707   18.7175   -6.3589 O   0  0  0  0  0
   -5.2340   18.0410   -4.5905 O   0  0  0  0  0
   -5.2927   20.3730   -5.3510 O   0  0  0  0  0
   -7.1443   19.5689   -3.7295 O   0  0  0  0  0
   -6.4102   14.1643   -7.4500 O   0  0  0  0  0
   -7.9971   14.7359   -9.4682 O   0  0  0  0  0
   -9.0203   13.9398   -7.3915 O   0  0  0  0  0
   -7.7626   12.2197   -8.8819 O   0  0  0  0  0
    1.4605   11.3648  -10.9382 S   0  0  0  0  0
    1.9923    0.2488  -16.8171 S   0  0  0  0  0
   -7.7340   -6.5270  -20.0428 S   0  0  0  0  0
   -3.6902   -7.3032  -18.4207 S   0  0  0  0  0
   -7.6255    0.5645  -17.9108 S   0  0  0  0  0
   -6.7123   21.5476   -9.7994 S   0  0  0  0  0
   -6.1326   19.1749   -5.0058 S   0  0  0  0  0
   -7.8395   13.7958   -8.3074 S   0  0  0  0  0
   -0.7942   12.7040  -10.1499 C   0  0  0  0  0
   -1.2674   11.5498   -9.5147 C   0  0  0  0  0
   -2.4923   11.5530   -8.8282 C   0  0  0  0  0
   -2.3175    9.1082   -8.3154 C   0  0  0  0  0
   -2.4465    8.5006   -9.6832 C   0  0  0  0  0
   -3.2667    9.0705  -10.6665 C   0  0  0  0  0
   -3.3321    8.5065  -11.9420 C   0  0  0  0  0
   -2.5892    7.3559  -12.2527 C   0  0  0  0  0
   -2.6124    6.7909  -13.6225 C   0  0  0  0  0
   -3.2284    7.4899  -14.6789 C   0  0  0  0  0
   -3.1929    6.9878  -15.9841 C   0  0  0  0  0
   -2.5436    5.7790  -16.2480 C   0  0  0  0  0
   -1.9374    5.0699  -15.2033 C   0  0  0  0  0
   -1.9737    5.5719  -13.8999 C   0  0  0  0  0
   -2.4554    5.2946  -17.6564 C   0  0  0  0  0
   -2.4144    2.8128  -17.7243 C   0  0  0  0  0
   -3.0797    1.5917  -17.9980 C   0  0  0  0  0
   -4.4374    1.5216  -18.3626 C   0  0  0  0  0
   -5.0174    0.2765  -18.6442 C   0  0  0  0  0
   -4.2151   -0.8882  -18.5687 C   0  0  0  0  0
   -2.3517    0.3806  -17.9349 C   0  0  0  0  0
   -1.0015    0.3913  -17.5798 C   0  0  0  0  0
   -0.3473    1.5941  -17.2881 C   0  0  0  0  0
   -1.0513    2.7935  -17.3767 C   0  0  0  0  0
   -4.7349   -2.2549  -18.8464 C   0  0  0  0  0
   -3.8675   -3.3494  -18.7498 C   0  0  0  0  0
   -4.3047   -4.6593  -18.9796 C   0  0  0  0  0
   -5.6556   -4.8832  -19.3343 C   0  0  0  0  0
   -6.5294   -3.7881  -19.4080 C   0  0  0  0  0
   -6.0749   -2.4931  -19.1692 C   0  0  0  0  0
   -1.7938    6.7718  -11.2534 C   0  0  0  0  0
   -1.7272    7.3396   -9.9771 C   0  0  0  0  0
   -3.2481   12.7503   -8.7636 C   0  0  0  0  0
   -4.4825   12.8464   -8.0907 C   0  0  0  0  0
   -5.1640   14.0691   -8.0716 C   0  0  0  0  0
   -4.5902   15.1849   -8.7137 C   0  0  0  0  0
   -2.7585   13.9127   -9.4071 C   0  0  0  0  0
   -1.5463   13.8758  -10.0936 C   0  0  0  0  0
   -5.2325   16.5130   -8.6928 C   0  0  0  0  0
   -5.8978   16.9717   -7.5489 C   0  0  0  0  0
   -6.4554   18.2546   -7.5182 C   0  0  0  0  0
   -6.3536   19.0915   -8.6349 C   0  0  0  0  0
   -5.6731   18.6395   -9.7717 C   0  0  0  0  0
   -5.1082   17.3626   -9.7972 C   0  0  0  0  0
 39  1  1  0  0  0
 39  4  1  0  0  0
 40  9  1  0  0  0
 40 12  1  0  0  0
 41 13  1  0  0  0
 41 16  1  0  0  0
 42 17  1  0  0  0
 42 20  1  0  0  0
 43 21  1  0  0  0
 43 24  1  0  0  0
 44 27  1  0  0  0
 44 30  1  0  0  0
 45 31  1  0  0  0
 45 34  1  0  0  0
 46 35  1  0  0  0
 46 38  1  0  0  0
 47  4  1  0  0  0
 48 49  1  0  0  0
 49  5  1  0  0  0
 50  5  1  0  0  0
 50 51  1  0  0  0
 52 53  1  0  0  0
 54 55  1  0  0  0
 54 77  1  0  0  0
 56 57  1  0  0  0
 58 59  1  0  0  0
 60 55  1  0  0  0
 61 58  1  0  0  0
 61  6  1  0  0  0
 62  6  1  0  0  0
 63 64  1  0  0  0
 64 65  1  0  0  0
 65 21  1  0  0  0
 66  8  1  0  0  0
 66 71  1  0  0  0
 67  8  1  0  0  0
 67 63  1  0  0  0
 68 69  1  0  0  0
 69  9  1  0  0  0
 70 62  1  0  0  0
 72 73  1  0  0  0
 73 17  1  0  0  0
 74 75  1  0  0  0
 74 13  1  0  0  0
 76 71  1  0  0  0
 78 51  1  0  0  0
 79 80  1  0  0  0
 80 81  1  0  0  0
 81 35  1  0  0  0
 82 26  1  0  0  0
 82 85  1  0  0  0
 83 26  1  0  0  0
 83 79  1  0  0  0
 84 47  1  0  0  0
 86 87  1  0  0  0
 87 31  1  0  0  0
 88 89  1  0  0  0
 88 27  1  0  0  0
 90 85  1  0  0  0
 39  2  2  0  0  0
 39  3  2  0  0  0
 40 10  2  0  0  0
 40 11  2  0  0  0
 41 14  2  0  0  0
 41 15  2  0  0  0
 42 18  2  0  0  0
 42 19  2  0  0  0
 43 22  2  0  0  0
 43 23  2  0  0  0
 44 28  2  0  0  0
 44 29  2  0  0  0
 45 32  2  0  0  0
 45 33  2  0  0  0
 46 36  2  0  0  0
 46 37  2  0  0  0
 47 48  2  0  0  0
 49 79  2  0  0  0
 51 52  2  0  0  0
 53 54  2  0  0  0
 55 56  2  0  0  0
 57 58  2  0  0  0
 59 60  2  0  0  0
 62 63  2  0  0  0
 64  7  2  0  0  0
 65 66  2  0  0  0
 67 68  2  0  0  0
 69 70  2  0  0  0
 71 72  2  0  0  0
 73 74  2  0  0  0
 75 76  2  0  0  0
 77 78  2  0  0  0
 80 25  2  0  0  0
 81 82  2  0  0  0
 83 84  2  0  0  0
 85 86  2  0  0  0
 87 88  2  0  0  0
 89 90  2  0  0  0
M  END
> <rmsd>
0.664695501

$$$$
CHEMBL439453 PubChem-44341447


113127  0  0  0  0  0  0  0  0999 V2000
   -9.8485   -7.0250  -23.7230 C   0  0  0  0  0
  -10.0507   -5.8042  -21.7516 C   0  0  0  0  0
  -11.0635   -4.9525  -19.8987 C   0  0  0  0  0
   -9.7682   -4.7069  -19.1039 C   0  0  0  0  0
   -8.2992   -3.1652  -18.3436 C   0  0  0  0  0
   -5.9543   -2.8015  -18.3422 C   0  0  0  0  0
   -6.1523   -2.6185  -16.8080 C   0  0  0  0  0
   -5.3305   -4.7669  -16.5171 C   0  0  0  0  0
   -3.9102   -4.3238  -16.1343 C   0  0  0  0  0
   -2.9253   -5.2975  -16.7936 C   0  0  0  0  0
   -3.3566   -6.7616  -16.6094 C   0  0  0  0  0
   -2.8315   -7.3526  -18.7990 C   0  0  0  0  0
   -1.6816   -7.8753  -19.6416 C   0  0  0  0  0
   -1.6217   -9.3910  -19.4819 C   0  0  0  0  0
   -2.9589  -10.0248  -19.8523 C   0  0  0  0  0
   -3.8832  -12.0162  -20.2809 C   0  0  0  0  0
   -5.7372  -13.3527  -20.2220 C   0  0  0  0  0
   -5.6885  -13.2819  -21.7812 C   0  0  0  0  0
   -7.6715  -13.3398  -22.8356 C   0  0  0  0  0
   -9.7479  -12.5359  -21.9416 C   0  0  0  0  0
  -10.0883  -12.1529  -23.3939 C   0  0  0  0  0
   -9.8222   -9.9019  -23.1887 C   0  0  0  0  0
  -11.0269   -7.9793  -23.4880 C   0  0  0  0  0
  -12.2452   -7.4892  -25.4956 C   0  0  0  0  0
  -13.4006   -8.2825  -25.9940 C   0  0  0  0  0
  -14.7095   -7.8065  -25.8411 C   0  0  0  0  0
  -15.7838   -8.5502  -26.3429 C   0  0  0  0  0
  -15.5559   -9.7678  -26.9872 C   0  0  0  0  0
  -14.2514  -10.2502  -27.1228 C   0  0  0  0  0
  -13.1775   -9.5093  -26.6258 C   0  0  0  0  0
   -8.6177   -9.0405  -22.7307 C   0  0  0  0  0
   -8.4865   -7.6879  -23.4521 C   0  0  0  0  0
   -9.7859  -13.3605  -24.2848 C   0  0  0  0  0
   -8.5325  -14.1304  -23.8430 C   0  0  0  0  0
  -11.7214  -13.1853  -20.8312 C   0  0  0  0  0
  -12.4993  -14.3317  -20.2975 C   0  0  0  0  0
  -11.9661  -15.1385  -19.2801 C   0  0  0  0  0
  -12.6910  -16.2370  -18.8019 C   0  0  0  0  0
  -13.9483  -16.5350  -19.3377 C   0  0  0  0  0
  -14.4852  -15.7320  -20.3485 C   0  0  0  0  0
  -13.7595  -14.6331  -20.8305 C   0  0  0  0  0
   -4.2667  -13.4537  -22.3426 C   0  0  0  0  0
   -3.2549  -12.5699  -21.5655 C   0  0  0  0  0
   -5.2892  -15.6824  -19.9277 C   0  0  0  0  0
   -5.5976  -16.8699  -19.0823 C   0  0  0  0  0
   -5.5599  -16.7748  -17.6883 C   0  0  0  0  0
   -5.7823  -17.9074  -16.8974 C   0  0  0  0  0
   -6.0393  -19.1424  -17.4983 C   0  0  0  0  0
   -6.0760  -19.2444  -18.8900 C   0  0  0  0  0
   -5.8525  -18.1026  -19.6837 C   0  0  0  0  0
   -4.1646   -9.2429  -19.2740 C   0  0  0  0  0
   -4.9585   -9.8465  -18.1051 C   0  0  0  0  0
   -5.3164   -8.3786  -16.2752 C   0  0  0  0  0
   -4.8935   -6.9698  -16.7161 C   0  0  0  0  0
   -4.4042  -10.5225  -15.9178 C   0  0  0  0  0
   -2.9922  -10.7981  -15.5262 C   0  0  0  0  0
   -2.2934   -9.8672  -14.7513 C   0  0  0  0  0
   -0.9555  -10.0884  -14.4194 C   0  0  0  0  0
   -0.3051  -11.2484  -14.8609 C   0  0  0  0  0
   -1.0061  -12.1878  -15.6291 C   0  0  0  0  0
   -2.3455  -11.9610  -15.9637 C   0  0  0  0  0
   -7.3548   -1.7130  -16.5245 C   0  0  0  0  0
   -8.4632   -1.8411  -17.5938 C   0  0  0  0  0
   -3.9303   -1.7412  -18.8647 C   0  0  0  0  0
   -3.3166   -0.4075  -18.5887 C   0  0  0  0  0
   -3.4724    0.6493  -19.4915 C   0  0  0  0  0
   -2.9080    1.8975  -19.2167 C   0  0  0  0  0
   -2.1825    2.0927  -18.0401 C   0  0  0  0  0
   -2.0077    1.0341  -17.1415 C   0  0  0  0  0
   -2.5717   -0.2207  -17.4188 C   0  0  0  0  0
   -8.6904   -5.6732  -19.6357 C   0  0  0  0  0
   -8.6349   -5.6687  -21.1656 C   0  0  0  0  0
  -12.1305   -2.7911  -19.9235 C   0  0  0  0  0
  -12.7527   -1.8259  -18.9691 C   0  0  0  0  0
  -13.9033   -1.1254  -19.3456 C   0  0  0  0  0
  -14.4708   -0.1895  -18.4753 C   0  0  0  0  0
  -13.8847    0.0488  -17.2246 C   0  0  0  0  0
  -12.7319   -0.6496  -16.8489 C   0  0  0  0  0
  -12.1657   -1.5887  -17.7179 C   0  0  0  0  0
   -9.9898   -5.7352  -23.1603 O   0  0  0  0  0
  -10.8643   -4.7551  -21.2822 O   0  0  0  0  0
   -9.3678   -3.3629  -19.2281 O   0  0  0  0  0
   -7.0978   -3.2011  -19.0865 O   0  0  0  0  0
   -6.2921   -3.8392  -16.0869 O   0  0  0  0  0
   -2.6195   -7.6471  -17.4348 O   0  0  0  0  0
   -2.9569  -11.3672  -19.4632 O   0  0  0  0  0
   -4.5132  -13.0476  -19.5742 O   0  0  0  0  0
   -6.6151  -14.1508  -22.3836 O   0  0  0  0  0
   -8.3667  -12.7579  -21.7175 O   0  0  0  0  0
   -9.3219  -11.0492  -23.8191 O   0  0  0  0  0
  -10.7205   -9.2362  -24.0472 O   0  0  0  0  0
   -7.8010   -7.8581  -24.6562 O   0  0  0  0  0
   -8.7055   -8.8356  -21.3527 O   0  0  0  0  0
   -8.9069  -15.3592  -23.2993 O   0  0  0  0  0
   -9.6668  -12.9773  -25.6215 O   0  0  0  0  0
   -2.0763  -13.2647  -21.2718 O   0  0  0  0  0
   -3.8872  -14.7961  -22.3182 O   0  0  0  0  0
   -4.0846   -7.8262  -19.2844 O   0  0  0  0  0
   -5.5851   -6.0261  -15.9360 O   0  0  0  0  0
   -0.6096   -9.9069  -20.3034 O   0  0  0  0  0
   -0.4773   -7.3088  -19.2103 O   0  0  0  0  0
   -1.6344   -5.1073  -16.3009 O   0  0  0  0  0
   -3.7583   -4.3367  -14.7456 O   0  0  0  0  0
   -8.4084   -0.7828  -18.5049 O   0  0  0  0  0
   -6.9339   -0.3958  -16.3801 O   0  0  0  0  0
   -8.0312   -4.4965  -21.6255 O   0  0  0  0  0
   -8.9467   -6.9653  -19.1679 O   0  0  0  0  0
  -12.2685   -7.4341  -24.0397 N   0  0  0  0  0
  -10.5198  -13.6874  -21.4777 N   0  0  0  0  0
   -6.2772  -14.6284  -19.7247 N   0  0  0  0  0
   -4.4258   -9.3900  -16.8298 N   0  0  0  0  0
   -5.3768   -1.6124  -18.9337 N   0  0  0  0  0
  -12.1838   -4.1503  -19.3872 N   0  0  0  0  0
  1 80  1  0  0  0
  2 80  1  0  0  0
  2 81  1  0  0  0
  3 81  1  0  0  0
  3  4  1  0  0  0
  3113  1  0  0  0
  4 82  1  0  0  0
  4 71  1  0  0  0
  5 82  1  0  0  0
  5 83  1  0  0  0
  6 83  1  0  0  0
  6  7  1  0  0  0
  6112  1  0  0  0
  7 84  1  0  0  0
  7 62  1  0  0  0
  8 84  1  0  0  0
  8  9  1  0  0  0
  8 99  1  0  0  0
  9 10  1  0  0  0
  9103  1  0  0  0
 10 11  1  0  0  0
 10102  1  0  0  0
 11 85  1  0  0  0
 12 85  1  0  0  0
 12 13  1  0  0  0
 12 98  1  0  0  0
 13 14  1  0  0  0
 13101  1  0  0  0
 14 15  1  0  0  0
 14100  1  0  0  0
 15 86  1  0  0  0
 15 51  1  0  0  0
 16 86  1  0  0  0
 16 87  1  0  0  0
 17 87  1  0  0  0
 17 18  1  0  0  0
 17110  1  0  0  0
 18 88  1  0  0  0
 18 42  1  0  0  0
 19 88  1  0  0  0
 19 89  1  0  0  0
 20 89  1  0  0  0
 20 21  1  0  0  0
 20109  1  0  0  0
 21 90  1  0  0  0
 21 33  1  0  0  0
 22 90  1  0  0  0
 22 91  1  0  0  0
 22 31  1  0  0  0
 23 91  1  0  0  0
 23108  1  0  0  0
 23  1  1  0  0  0
 24108  1  0  0  0
 24 25  1  0  0  0
 26 27  1  0  0  0
 28 29  1  0  0  0
 30 25  1  0  0  0
 31 32  1  0  0  0
 31 93  1  0  0  0
 32 92  1  0  0  0
 32  1  1  0  0  0
 33 34  1  0  0  0
 33 95  1  0  0  0
 34 94  1  0  0  0
 34 19  1  0  0  0
 35109  1  0  0  0
 35 36  1  0  0  0
 37 38  1  0  0  0
 39 40  1  0  0  0
 41 36  1  0  0  0
 42 43  1  0  0  0
 42 97  1  0  0  0
 43 96  1  0  0  0
 43 16  1  0  0  0
 44110  1  0  0  0
 44 45  1  0  0  0
 46 47  1  0  0  0
 48 49  1  0  0  0
 50 45  1  0  0  0
 51 98  1  0  0  0
 51 52  1  0  0  0
 52111  1  0  0  0
 53111  1  0  0  0
 53 54  1  0  0  0
 54 99  1  0  0  0
 54 11  1  0  0  0
 55111  1  0  0  0
 55 56  1  0  0  0
 57 58  1  0  0  0
 59 60  1  0  0  0
 61 56  1  0  0  0
 62 63  1  0  0  0
 62105  1  0  0  0
 63104  1  0  0  0
 63  5  1  0  0  0
 64112  1  0  0  0
 64 65  1  0  0  0
 66 67  1  0  0  0
 68 69  1  0  0  0
 70 65  1  0  0  0
 71 72  1  0  0  0
 71107  1  0  0  0
 72106  1  0  0  0
 72  2  1  0  0  0
 73113  1  0  0  0
 73 74  1  0  0  0
 75 76  1  0  0  0
 77 78  1  0  0  0
 79 74  1  0  0  0
 25 26  2  0  0  0
 27 28  2  0  0  0
 29 30  2  0  0  0
 36 37  2  0  0  0
 38 39  2  0  0  0
 40 41  2  0  0  0
 45 46  2  0  0  0
 47 48  2  0  0  0
 49 50  2  0  0  0
 56 57  2  0  0  0
 58 59  2  0  0  0
 60 61  2  0  0  0
 65 66  2  0  0  0
 67 68  2  0  0  0
 69 70  2  0  0  0
 74 75  2  0  0  0
 76 77  2  0  0  0
 78 79  2  0  0  0
M  END
> <rmsd>
0.690382421

$$$$
CHEMBL4554296 PubChem-44374087 PubChem-461798 PubChem-78071647


 41 43  0  0  0  0  0  0  0  0999 V2000
   -4.1929   -1.0418  -16.9054 C   0  0  0  0  0
   -5.5192   -1.1854  -17.6502 C   0  0  0  0  0
   -5.3141   -1.7122  -19.0809 C   0  0  0  0  0
   -3.2710   -0.3013  -19.1363 C   0  0  0  0  0
   -2.3058    0.3577  -19.9014 C   0  0  0  0  0
   -1.2242    0.9902  -19.2859 C   0  0  0  0  0
   -1.1157    0.9623  -17.8894 C   0  0  0  0  0
   -2.0770    0.3105  -17.1040 C   0  0  0  0  0
   -3.1642   -0.3200  -17.7308 C   0  0  0  0  0
   -4.9707   -3.1724  -19.1373 C   0  0  0  0  0
   -5.9240   -4.0727  -19.6169 C   0  0  0  0  0
   -5.6454   -5.4469  -19.6807 C   0  0  0  0  0
   -4.3925   -5.9196  -19.2616 C   0  0  0  0  0
   -3.4356   -5.0121  -18.7807 C   0  0  0  0  0
   -3.7222   -3.6475  -18.7182 C   0  0  0  0  0
   -4.3422   -0.9322  -19.7811 O   0  0  0  0  0
   -1.9697    0.2800  -15.7083 O   0  0  0  0  0
   -0.8826    0.7921  -13.3771 O   0  0  0  0  0
   -0.7334    2.5217  -15.1076 O   0  0  0  0  0
    0.7750    0.4163  -15.3417 O   0  0  0  0  0
   -0.2735    1.6350  -20.0825 O   0  0  0  0  0
    0.7086    3.4996  -18.5069 O   0  0  0  0  0
    1.9535    1.3939  -18.7070 O   0  0  0  0  0
    2.0175    3.0519  -20.7053 O   0  0  0  0  0
   -4.1228   -7.2910  -19.3339 O   0  0  0  0  0
   -2.6765   -9.4652  -19.0888 O   0  0  0  0  0
   -2.4003   -7.7168  -17.3931 O   0  0  0  0  0
   -1.3841   -7.3124  -19.7537 O   0  0  0  0  0
   -6.5957   -6.3584  -20.1545 O   0  0  0  0  0
   -8.9093   -7.1173  -21.1320 O   0  0  0  0  0
   -8.9015   -5.2497  -19.5443 O   0  0  0  0  0
   -8.0302   -4.8162  -21.9562 O   0  0  0  0  0
   -6.3882   -2.0117  -16.9284 O   0  0  0  0  0
   -8.4276   -0.9741  -18.1997 O   0  0  0  0  0
   -7.6461    0.1545  -16.1597 O   0  0  0  0  0
   -8.9289   -2.0854  -15.9113 O   0  0  0  0  0
   -0.7037    1.0422  -14.8473 S   0  0  0  0  0
    1.1179    2.4003  -19.4461 S   0  0  0  0  0
   -2.6343   -7.9823  -18.8535 S   0  0  0  0  0
   -8.1577   -5.8983  -20.6777 S   0  0  0  0  0
   -7.8516   -1.1779  -16.8259 S   0  0  0  0  0
  1  2  1  0  0  0
  1  9  1  0  0  0
  2  3  1  0  0  0
  2 33  1  0  0  0
  3 16  1  0  0  0
  3 10  1  0  0  0
  4 16  1  0  0  0
  5  6  1  0  0  0
  6 21  1  0  0  0
  7  8  1  0  0  0
  8 17  1  0  0  0
  9  4  1  0  0  0
 11 12  1  0  0  0
 12 29  1  0  0  0
 13 14  1  0  0  0
 13 25  1  0  0  0
 15 10  1  0  0  0
 37 17  1  0  0  0
 37 20  1  0  0  0
 38 21  1  0  0  0
 38 24  1  0  0  0
 39 25  1  0  0  0
 39 28  1  0  0  0
 40 29  1  0  0  0
 40 32  1  0  0  0
 41 33  1  0  0  0
 41 36  1  0  0  0
  4  5  2  0  0  0
  6  7  2  0  0  0
  8  9  2  0  0  0
 10 11  2  0  0  0
 12 13  2  0  0  0
 14 15  2  0  0  0
 37 18  2  0  0  0
 37 19  2  0  0  0
 38 22  2  0  0  0
 38 23  2  0  0  0
 39 26  2  0  0  0
 39 27  2  0  0  0
 40 30  2  0  0  0
 40 31  2  0  0  0
 41 34  2  0  0  0
 41 35  2  0  0  0
M  CHG  5  20  -1  24  -1  28  -1  32  -1  36  -1
M  END
> <rmsd>
0.709335268

$$$$
CHEMBL1160016 PubChem-44284697


 44 46  0  0  0  0  0  0  0  0999 V2000
   -3.5200   -1.0264  -16.7250 O   0  0  0  0  0
   -3.6002   -1.3868  -19.0119 O   0  0  0  0  0
   -2.2118   -3.8323  -18.5427 O   0  0  0  0  0
   -0.0470   -4.5914  -17.2887 O   0  0  0  0  0
   -2.0270   -3.8978  -15.7375 O   0  0  0  0  0
   -0.5891   -2.0440  -17.1900 O   0  0  0  0  0
   -3.6337   -5.9673  -17.3260 O   0  0  0  0  0
   -1.9541   -6.7515  -19.1952 O   0  0  0  0  0
   -2.5153   -8.4890  -17.3300 O   0  0  0  0  0
   -4.3411   -7.8218  -19.2805 O   0  0  0  0  0
   -6.3710   -6.1710  -17.8578 O   0  0  0  0  0
   -8.1427   -5.5149  -16.5325 O   0  0  0  0  0
   -6.4176   -4.3857  -20.0662 O   0  0  0  0  0
   -8.3040   -2.6997  -20.7815 O   0  0  0  0  0
   -9.1157   -4.9012  -19.6214 O   0  0  0  0  0
   -8.1104   -4.8908  -22.1862 O   0  0  0  0  0
   -5.9813   -1.9740  -17.4097 O   0  0  0  0  0
   -7.1395    0.1408  -16.3979 O   0  0  0  0  0
   -6.4580    0.3190  -18.9124 O   0  0  0  0  0
   -8.5715   -1.2546  -18.0773 O   0  0  0  0  0
   -3.3014   -0.5981  -17.8913 C   0  0  0  0  0
   -4.2551   -2.6580  -18.9734 C   0  0  0  0  0
   -3.5310   -3.6901  -18.0948 C   0  0  0  0  0
   -4.2461   -5.0475  -18.1852 C   0  0  0  0  0
   -5.7260   -4.9033  -17.8117 C   0  0  0  0  0
   -7.5934   -6.4153  -17.2260 C   0  0  0  0  0
   -8.2377   -7.7293  -17.3737 C   0  0  0  0  0
   -7.6263   -8.7283  -18.1439 C   0  0  0  0  0
   -8.2349   -9.9781  -18.2903 C   0  0  0  0  0
   -9.4594  -10.2366  -17.6687 C   0  0  0  0  0
  -10.0755   -9.2454  -16.9002 C   0  0  0  0  0
   -9.4670   -7.9953  -16.7529 C   0  0  0  0  0
   -6.4320   -3.9115  -18.7470 C   0  0  0  0  0
   -5.7589   -2.5383  -18.6704 C   0  0  0  0  0
   -2.7113    0.7351  -18.0834 C   0  0  0  0  0
   -2.4321    1.5583  -16.9823 C   0  0  0  0  0
   -1.8690    2.8240  -17.1718 C   0  0  0  0  0
   -1.5806    3.2739  -18.4624 C   0  0  0  0  0
   -1.8552    2.4587  -19.5642 C   0  0  0  0  0
   -2.4190    1.1937  -19.3750 C   0  0  0  0  0
   -1.2005   -3.6204  -17.1906 P   0  0  0  0  0
   -3.0827   -7.2359  -18.3129 P   0  0  0  0  0
   -7.9946   -4.1741  -20.6589 P   0  0  0  0  0
   -7.0377   -0.6713  -17.6680 P   0  0  0  0  0
 21  2  1  0  0  0
 21 35  1  0  0  0
 22  2  1  0  0  0
 22 23  1  0  0  0
 23  3  1  0  0  0
 23 24  1  0  0  0
 24  7  1  0  0  0
 24 25  1  0  0  0
 25 11  1  0  0  0
 25 33  1  0  0  0
 26 11  1  0  0  0
 26 27  1  0  0  0
 28 29  1  0  0  0
 30 31  1  0  0  0
 32 27  1  0  0  0
 33 13  1  0  0  0
 33 34  1  0  0  0
 34 17  1  0  0  0
 34 22  1  0  0  0
 36 37  1  0  0  0
 38 39  1  0  0  0
 40 35  1  0  0  0
 41  3  1  0  0  0
 41  5  1  0  0  0
 41  6  1  0  0  0
 42  7  1  0  0  0
 42  9  1  0  0  0
 42 10  1  0  0  0
 43 13  1  0  0  0
 43 15  1  0  0  0
 43 16  1  0  0  0
 44 17  1  0  0  0
 44 19  1  0  0  0
 44 20  1  0  0  0
 21  1  2  0  0  0
 26 12  2  0  0  0
 27 28  2  0  0  0
 29 30  2  0  0  0
 31 32  2  0  0  0
 35 36  2  0  0  0
 37 38  2  0  0  0
 39 40  2  0  0  0
 41  4  2  0  0  0
 42  8  2  0  0  0
 43 14  2  0  0  0
 44 18  2  0  0  0
M  END
> <rmsd>
0.670505106

$$$$
CHEMBL3251376 PubChem-90655761


 59 64  0  0  0  0  0  0  0  0999 V2000
   -6.4738   -1.7237  -19.3559 O   0  0  0  0  0
   -5.5563   -3.1074  -23.0782 O   0  0  0  0  0
   -7.1386   -4.8585  -21.9331 O   0  0  0  0  0
   -4.5624   -5.1625  -21.4966 O   0  0  0  0  0
   -4.5548   -8.2817  -19.6675 O   0  0  0  0  0
    0.9466  -11.8670  -23.7752 O   0  0  0  0  0
   -1.8482   -8.5549  -24.0353 O   0  0  0  0  0
   -2.7957   -5.3324  -18.9378 O   0  0  0  0  0
   -2.6177   -7.4077  -17.3652 O   0  0  0  0  0
   -5.7210   -5.7115  -23.9597 O   0  0  0  0  0
   -3.2445   -1.9740  -23.1174 O   0  0  0  0  0
   -5.6781   -0.0726  -21.4936 O   0  0  0  0  0
   -6.8507   -2.3082  -16.8330 O   0  0  0  0  0
   -8.6915   -0.7661  -17.9368 O   0  0  0  0  0
   -8.7637    1.7729  -17.3317 O   0  0  0  0  0
   -6.7217    1.0357  -18.7672 O   0  0  0  0  0
   -6.9411    0.3891  -16.0882 O   0  0  0  0  0
   -8.4605   -3.4515  -18.5238 O   0  0  0  0  0
   -7.2234   -1.6371  -20.5336 C   0  0  0  0  0
   -6.3186   -1.3057  -21.7119 C   0  0  0  0  0
   -5.2860   -2.3977  -21.9015 C   0  0  0  0  0
   -4.7171   -6.5355  -21.2945 C   0  0  0  0  0
   -4.3482   -6.9013  -19.8649 C   0  0  0  0  0
   -3.3743   -8.8172  -19.1093 C   0  0  0  0  0
   -2.5704  -11.0998  -19.6952 C   0  0  0  0  0
   -1.9026  -11.9299  -20.4964 C   0  0  0  0  0
   -1.2178  -11.4323  -21.7474 C   0  0  0  0  0
   -1.2298  -12.4569  -22.8953 C   0  0  0  0  0
   -0.4146  -11.9352  -24.0903 C   0  0  0  0  0
   -1.5006   -9.6917  -23.6187 C   0  0  0  0  0
   -1.7558  -10.0988  -22.2256 C   0  0  0  0  0
   -2.4174   -9.2936  -21.3895 C   0  0  0  0  0
   -0.7214  -13.8326  -22.4730 C   0  0  0  0  0
   -1.8710  -14.7213  -22.0208 C   0  0  0  0  0
   -2.5544  -15.3914  -23.2066 C   0  0  0  0  0
   -3.4691  -14.4375  -23.9660 C   0  0  0  0  0
   -4.7775  -14.2176  -23.2220 C   0  0  0  0  0
   -4.6723  -13.0104  -22.3104 C   0  0  0  0  0
   -5.9855  -12.8147  -21.5796 C   0  0  0  0  0
   -5.8983  -11.5844  -20.7006 C   0  0  0  0  0
   -2.4323   -7.6993  -18.7197 C   0  0  0  0  0
   -2.9009   -6.5662  -19.5855 C   0  0  0  0  0
   -3.9721   -1.6617  -21.9661 C   0  0  0  0  0
   -4.3679   -0.2043  -21.9839 C   0  0  0  0  0
   -2.6411    1.5822  -21.5885 C   0  0  0  0  0
   -2.3246    1.4399  -19.4929 C   0  0  0  0  0
   -1.9446    1.5656  -18.1643 C   0  0  0  0  0
   -3.4485   -0.2111  -17.6387 C   0  0  0  0  0
   -3.2366    0.5105  -19.8460 C   0  0  0  0  0
   -5.7824   -4.7177  -22.5915 P   0  0  0  0  0
   -7.5925   -2.0539  -18.1265 P   0  0  0  0  0
   -7.7991    0.6265  -17.5281 P   0  0  0  0  0
   -2.7354   -9.7241  -20.0567 N   0  0  0  0  0
   -0.8802  -10.6145  -24.5188 N   0  0  0  0  0
   -3.4517    0.5798  -21.1650 N   0  0  0  0  0
   -1.9228    2.1386  -20.5711 N   0  0  0  0  0
   -0.9864    2.5346  -17.7538 N   0  0  0  0  0
   -2.5225    0.7263  -17.2541 N   0  0  0  0  0
   -3.8151   -0.3263  -18.9510 N   0  0  0  0  0
 19  1  1  0  0  0
 20 19  1  0  0  0
 20 21  1  0  0  0
 20 12  1  0  0  0
 21  2  1  0  0  0
 21 43  1  0  0  0
 22  4  1  0  0  0
 23 22  1  0  0  0
 23  5  1  0  0  0
 24  5  1  0  0  0
 24 53  1  0  0  0
 24 41  1  0  0  0
 27 26  1  0  0  0
 27 28  1  0  0  0
 27 31  1  0  0  0
 28 29  1  0  0  0
 28 33  1  0  0  0
 29  6  1  0  0  0
 29 54  1  0  0  0
 30 31  1  0  0  0
 32 53  1  0  0  0
 33 34  1  0  0  0
 34 35  1  0  0  0
 35 36  1  0  0  0
 36 37  1  0  0  0
 37 38  1  0  0  0
 38 39  1  0  0  0
 39 40  1  0  0  0
 41 42  1  0  0  0
 41  9  1  0  0  0
 42  8  1  0  0  0
 42 23  1  0  0  0
 43 11  1  0  0  0
 43 44  1  0  0  0
 44 12  1  0  0  0
 44 55  1  0  0  0
 46 56  1  0  0  0
 47 57  1  0  0  0
 47 58  1  0  0  0
 48 59  1  0  0  0
 49 55  1  0  0  0
 49 46  1  0  0  0
 50  2  1  0  0  0
 50  4  1  0  0  0
 50 10  1  0  0  0
 51  1  1  0  0  0
 51 14  1  0  0  0
 51 18  1  0  0  0
 52 14  1  0  0  0
 52 16  1  0  0  0
 52 17  1  0  0  0
 53 25  1  0  0  0
 54 30  1  0  0  0
 55 45  1  0  0  0
 25 26  2  0  0  0
 30  7  2  0  0  0
 31 32  2  0  0  0
 45 56  2  0  0  0
 46 47  2  0  0  0
 48 58  2  0  0  0
 49 59  2  0  0  0
 50  3  2  0  0  0
 51 13  2  0  0  0
 52 15  2  0  0  0
M  END
> <rmsd>
0.639754355

$$$$
CHEMBL4639306 CHEMBL4651253 PubChem-156012951 PubChem-156012952


 67 70  0  0  0  0  0  0  0  0999 V2000
   -8.4775   -5.9900  -19.3738 O   0  0  0  0  0
   -8.6329   -7.8095  -21.2422 O   0  0  0  0  0
   -8.3783  -13.8129  -23.1545 O   0  0  0  0  0
   -6.8934  -14.5593  -21.5369 O   0  0  0  0  0
   -8.2618  -16.1295  -22.5113 O   0  0  0  0  0
   -6.1661   -6.8895  -20.3374 O   0  0  0  0  0
   -7.0552   -8.9940  -19.0115 O   0  0  0  0  0
   -6.5589   -6.8758  -17.5735 O   0  0  0  0  0
   -4.5363   -8.4191  -18.6755 O   0  0  0  0  0
   -2.0916   -7.5840  -18.3200 O   0  0  0  0  0
   -3.4183   -6.3977  -20.2239 O   0  0  0  0  0
   -3.9619   -5.9400  -17.5294 O   0  0  0  0  0
   -3.2969   -2.4315  -18.0080 O   0  0  0  0  0
   -5.0203    0.8883  -18.6932 O   0  0  0  0  0
   -7.8585   -5.2072  -21.7805 O   0  0  0  0  0
   -8.3610    0.1839  -18.4973 O   0  0  0  0  0
   -7.4323   -0.3494  -16.4291 O   0  0  0  0  0
   -7.7937   -6.4657  -20.6377 P   0  0  0  0  0
   -6.1101   -7.8174  -18.9080 P   0  0  0  0  0
   -3.4736   -7.0892  -18.6790 P   0  0  0  0  0
   -7.9597   -8.1735  -22.4113 C   0  0  0  0  0
   -8.0434   -9.6478  -22.6052 C   0  0  0  0  0
   -7.4314  -10.5123  -21.6950 C   0  0  0  0  0
   -7.5248  -11.8950  -21.8707 C   0  0  0  0  0
   -8.2281  -12.4303  -22.9611 C   0  0  0  0  0
   -8.8257  -11.5570  -23.8771 C   0  0  0  0  0
   -8.7331  -10.1715  -23.7017 C   0  0  0  0  0
   -7.8073  -14.8208  -22.3642 C   0  0  0  0  0
   -7.8010  -17.1815  -21.6748 C   0  0  0  0  0
   -8.6240  -18.4402  -21.8990 C   0  0  0  0  0
  -10.0701  -18.2190  -21.4799 C   0  0  0  0  0
  -10.8834  -17.7048  -22.6554 C   0  0  0  0  0
  -11.3543  -18.8722  -23.5067 C   0  0  0  0  0
  -11.7400  -18.3839  -24.8906 C   0  0  0  0  0
  -10.4966  -18.2691  -25.7542 C   0  0  0  0  0
  -10.8948  -17.9252  -27.1796 C   0  0  0  0  0
   -9.7016  -18.0710  -28.1180 C   0  0  0  0  0
   -9.2808  -19.5282  -28.2491 C   0  0  0  0  0
  -10.3371  -20.3252  -29.0016 C   0  0  0  0  0
  -10.1788  -21.8120  -28.7290 C   0  0  0  0  0
  -10.5394  -22.1524  -27.2903 C   0  0  0  0  0
  -12.0389  -22.0133  -27.0641 C   0  0  0  0  0
  -12.3801  -22.2322  -25.6013 C   0  0  0  0  0
  -12.3366  -23.7100  -25.2604 C   0  0  0  0  0
   -3.1803   -4.8068  -17.7660 C   0  0  0  0  0
   -4.0232   -3.5557  -17.5934 C   0  0  0  0  0
   -4.2292   -1.5973  -15.9957 C   0  0  0  0  0
   -3.9862   -1.3425  -17.4648 C   0  0  0  0  0
   -3.8319    0.9646  -18.2820 C   0  0  0  0  0
   -1.8630    2.2501  -18.0232 C   0  0  0  0  0
   -1.2299    1.1699  -17.4074 C   0  0  0  0  0
   -1.9488   -0.0094  -17.2320 C   0  0  0  0  0
   -6.7606   -4.3840  -21.5072 C   0  0  0  0  0
   -7.1843   -3.1930  -20.7174 C   0  0  0  0  0
   -6.7605   -3.0621  -19.3920 C   0  0  0  0  0
   -7.1474   -1.9515  -18.6417 C   0  0  0  0  0
   -7.9576   -0.9542  -19.2098 C   0  0  0  0  0
   -8.3761   -1.0916  -20.5402 C   0  0  0  0  0
   -7.9931   -2.2066  -21.2926 C   0  0  0  0  0
   -8.0695    0.4623  -17.1528 C   0  0  0  0  0
   -8.5552    1.7328  -16.5582 C   0  0  0  0  0
  -10.0045    1.5808  -16.1452 C   0  0  0  0  0
   -4.5177   -3.3656  -15.8487 S   0  0  0  0  0
   -3.2372   -0.1036  -17.6670 N   0  0  0  0  0
   -3.1469    2.1278  -18.4452 N   0  0  0  0  0
   -1.1733    3.4816  -18.2080 N   0  0  0  0  0
    0.0518    1.2617  -16.9743 F   0  0  0  0  0
 18  2  1  0  0  0
 18  6  1  0  0  0
 18 15  1  0  0  0
 19  6  1  0  0  0
 19  8  1  0  0  0
 19  9  1  0  0  0
 20  9  1  0  0  0
 20 11  1  0  0  0
 20 12  1  0  0  0
 21  2  1  0  0  0
 21 22  1  0  0  0
 23 24  1  0  0  0
 25 26  1  0  0  0
 25  3  1  0  0  0
 27 22  1  0  0  0
 28  3  1  0  0  0
 28  5  1  0  0  0
 29  5  1  0  0  0
 29 30  1  0  0  0
 30 31  1  0  0  0
 31 32  1  0  0  0
 32 33  1  0  0  0
 33 34  1  0  0  0
 34 35  1  0  0  0
 35 36  1  0  0  0
 36 37  1  0  0  0
 37 38  1  0  0  0
 38 39  1  0  0  0
 39 40  1  0  0  0
 40 41  1  0  0  0
 41 42  1  0  0  0
 42 43  1  0  0  0
 43 44  1  0  0  0
 45 12  1  0  0  0
 46 45  1  0  0  0
 46 63  1  0  0  0
 46 13  1  0  0  0
 47 63  1  0  0  0
 47 48  1  0  0  0
 48 13  1  0  0  0
 48 64  1  0  0  0
 49 65  1  0  0  0
 50 66  1  0  0  0
 50 51  1  0  0  0
 51 67  1  0  0  0
 52 64  1  0  0  0
 53 15  1  0  0  0
 53 54  1  0  0  0
 55 56  1  0  0  0
 57 58  1  0  0  0
 57 16  1  0  0  0
 59 54  1  0  0  0
 60 16  1  0  0  0
 61 60  1  0  0  0
 61 62  1  0  0  0
 64 49  1  0  0  0
 18  1  2  0  0  0
 19  7  2  0  0  0
 20 10  2  0  0  0
 22 23  2  0  0  0
 24 25  2  0  0  0
 26 27  2  0  0  0
 28  4  2  0  0  0
 49 14  2  0  0  0
 50 65  2  0  0  0
 51 52  2  0  0  0
 54 55  2  0  0  0
 56 57  2  0  0  0
 58 59  2  0  0  0
 60 17  2  0  0  0
M  END
> <rmsd>
0.731543839

$$$$
CHEMBL315528 PubChem-21936169


 47 51  0  0  0  0  0  0  0  0999 V2000
   -1.8077   -7.2879  -16.5839 C   0  0  0  0  0
   -3.8252   -7.6109  -17.9589 C   0  0  0  0  0
   -5.7239   -7.9738  -19.3228 C   0  0  0  0  0
   -6.3725   -6.8937  -18.7255 C   0  0  0  0  0
   -7.7388   -6.4862  -19.1659 C   0  0  0  0  0
   -7.6571   -5.4502  -20.2422 C   0  0  0  0  0
   -7.5024   -4.1087  -19.9005 C   0  0  0  0  0
   -7.2018   -1.7715  -20.4475 C   0  0  0  0  0
   -5.7778   -1.5208  -20.0645 C   0  0  0  0  0
   -6.2849   -1.9448  -17.6249 C   0  0  0  0  0
   -7.1797   -0.8058  -17.2652 C   0  0  0  0  0
   -3.9507   -1.4290  -18.3357 C   0  0  0  0  0
   -3.5402    0.0057  -18.3387 C   0  0  0  0  0
   -2.9620    0.5695  -19.4799 C   0  0  0  0  0
   -2.6015    1.9197  -19.4885 C   0  0  0  0  0
   -2.8166    2.7244  -18.3569 C   0  0  0  0  0
   -2.4378    4.1577  -18.3667 C   0  0  0  0  0
   -2.6602    4.9640  -17.2375 C   0  0  0  0  0
   -2.3030    6.3151  -17.2463 C   0  0  0  0  0
   -1.7196    6.8759  -18.3846 C   0  0  0  0  0
   -1.4931    6.0861  -19.5141 C   0  0  0  0  0
   -1.8503    4.7349  -19.5051 C   0  0  0  0  0
   -3.4001    2.1467  -17.2165 C   0  0  0  0  0
   -3.7602    0.7967  -17.2078 C   0  0  0  0  0
   -7.4296   -3.5068  -22.1870 C   0  0  0  0  0
   -9.1020   -2.0760  -23.6444 C   0  0  0  0  0
   -9.6373   -1.1927  -22.5687 C   0  0  0  0  0
  -10.5089   -1.7209  -21.6101 C   0  0  0  0  0
  -11.0059   -0.9047  -20.5895 C   0  0  0  0  0
  -10.6352    0.4419  -20.5281 C   0  0  0  0  0
   -9.7721    0.9747  -21.4909 C   0  0  0  0  0
   -9.2746    0.1590  -22.5117 C   0  0  0  0  0
   -7.6818   -5.7885  -21.5992 C   0  0  0  0  0
   -5.6980   -6.1785  -17.7365 C   0  0  0  0  0
   -2.5367   -7.9894  -17.5805 O   0  0  0  0  0
   -4.9358   -1.3077  -20.9775 O   0  0  0  0  0
   -8.3245   -0.7145  -17.7796 O   0  0  0  0  0
   -6.7447    0.1628  -16.3713 O   0  0  0  0  0
   -7.8067   -6.9889  -21.9607 O   0  0  0  0  0
   -4.4687   -8.3135  -18.9286 N   0  0  0  0  0
   -7.3861   -3.1565  -20.8645 N   0  0  0  0  0
   -5.3602   -1.5604  -18.6868 N   0  0  0  0  0
   -7.5719   -4.8129  -22.5369 N   0  0  0  0  0
   -4.4432   -6.5486  -17.3703 N   0  0  0  0  0
   -1.2700    8.5669  -18.3946 Cl  0  0  0  0  0
   -7.2962   -2.2761  -23.4923 S   0  0  0  0  0
  -11.1164    1.2316  -19.5388 F   0  0  0  0  0
  1 35  1  0  0  0
  2 35  1  0  0  0
  2 44  1  0  0  0
  3 40  1  0  0  0
  4 34  1  0  0  0
  5  4  1  0  0  0
  5  6  1  0  0  0
  7 41  1  0  0  0
  8 41  1  0  0  0
  8  9  1  0  0  0
  9 42  1  0  0  0
 10 42  1  0  0  0
 10 11  1  0  0  0
 11 38  1  0  0  0
 12 42  1  0  0  0
 12 13  1  0  0  0
 14 15  1  0  0  0
 16 17  1  0  0  0
 16 23  1  0  0  0
 18 19  1  0  0  0
 20 45  1  0  0  0
 20 21  1  0  0  0
 22 17  1  0  0  0
 24 13  1  0  0  0
 25 46  1  0  0  0
 26 46  1  0  0  0
 26 27  1  0  0  0
 28 29  1  0  0  0
 30 47  1  0  0  0
 30 31  1  0  0  0
 32 27  1  0  0  0
 33 43  1  0  0  0
 33  6  1  0  0  0
 41 25  1  0  0  0
  2 40  2  0  0  0
  3  4  2  0  0  0
  6  7  2  0  0  0
  9 36  2  0  0  0
 11 37  2  0  0  0
 13 14  2  0  0  0
 15 16  2  0  0  0
 17 18  2  0  0  0
 19 20  2  0  0  0
 21 22  2  0  0  0
 23 24  2  0  0  0
 25 43  2  0  0  0
 27 28  2  0  0  0
 29 30  2  0  0  0
 31 32  2  0  0  0
 33 39  2  0  0  0
 34 44  2  0  0  0
M  END
> <rmsd>
0.724097431

$$$$
CHEMBL2368686 PubChem-73349945


 56 60  0  0  0  0  0  0  0  0999 V2000
   -1.0508    3.1145  -18.5682 O   0  0  0  0  0
   -5.2861   -1.2858  -18.9603 O   0  0  0  0  0
   -8.2536   -2.4903  -20.6411 O   0  0  0  0  0
   -9.5432   -4.7410  -20.8672 O   0  0  0  0  0
   -7.1353   -4.6878  -21.8921 O   0  0  0  0  0
   -7.5684   -4.6913  -19.1214 O   0  0  0  0  0
   -6.9466   -6.8453  -17.8056 O   0  0  0  0  0
   -8.6940   -7.1710  -19.7106 O   0  0  0  0  0
   -6.0036   -6.6873  -20.2821 O   0  0  0  0  0
   -4.8537   -8.1581  -18.8613 O   0  0  0  0  0
   -2.1601   -8.5154  -17.9606 O   0  0  0  0  0
   -4.6448  -11.5984  -19.6828 O   0  0  0  0  0
   -7.3312  -11.2664  -19.6298 O   0  0  0  0  0
   -6.1920   -9.7117  -21.6361 O   0  0  0  0  0
   -7.0679  -11.4054  -23.7793 O   0  0  0  0  0
   -6.1101  -13.9266  -22.8233 O   0  0  0  0  0
   -8.4029  -15.4531  -22.4527 O   0  0  0  0  0
   -8.6394   -0.7586  -18.0855 O   0  0  0  0  0
   -6.9752    0.3734  -16.4783 O   0  0  0  0  0
   -3.2279    0.0499  -16.0443 O   0  0  0  0  0
   -2.0116    2.3145  -18.4292 C   0  0  0  0  0
   -2.9567    2.1786  -19.4392 C   0  0  0  0  0
   -4.0068    1.2837  -19.2466 C   0  0  0  0  0
   -5.2185   -0.3619  -17.9017 C   0  0  0  0  0
   -6.6460   -1.6031  -19.0909 C   0  0  0  0  0
   -6.9363   -2.0335  -20.5218 C   0  0  0  0  0
   -5.5102   -7.9990  -20.1015 C   0  0  0  0  0
   -4.1587   -9.3801  -18.9319 C   0  0  0  0  0
   -3.1542   -9.4778  -17.7987 C   0  0  0  0  0
   -5.1265  -10.5719  -18.8675 C   0  0  0  0  0
   -6.5456  -10.1569  -19.2952 C   0  0  0  0  0
   -6.5354   -9.1123  -20.4217 C   0  0  0  0  0
   -7.2325   -9.3904  -22.5097 C   0  0  0  0  0
   -6.9662  -10.0149  -23.8668 C   0  0  0  0  0
   -5.7712  -11.8765  -24.0058 C   0  0  0  0  0
   -5.3373  -12.7647  -22.8500 C   0  0  0  0  0
   -6.8323  -13.8473  -21.6306 C   0  0  0  0  0
   -7.5620  -15.1558  -21.3767 C   0  0  0  0  0
   -9.6974  -15.3258  -21.9442 C   0  0  0  0  0
  -10.6291  -16.2058  -22.7051 C   0  0  0  0  0
  -11.3143  -17.2274  -22.0378 C   0  0  0  0  0
  -12.1939  -18.0595  -22.7368 C   0  0  0  0  0
  -12.3906  -17.8723  -24.1073 C   0  0  0  0  0
  -13.2658  -18.7007  -24.8123 C   0  0  0  0  0
  -13.4536  -18.5083  -26.1837 C   0  0  0  0  0
  -12.7694  -17.4868  -26.8540 C   0  0  0  0  0
  -11.8932  -16.6528  -26.1557 C   0  0  0  0  0
  -11.7000  -16.8389  -24.7828 C   0  0  0  0  0
  -10.8251  -16.0104  -24.0780 C   0  0  0  0  0
   -7.4523   -0.3794  -18.7200 C   0  0  0  0  0
   -6.5323    0.3909  -17.8040 C   0  0  0  0  0
   -3.1546    0.7116  -17.1151 C   0  0  0  0  0
   -4.0993    0.5613  -18.0941 N   0  0  0  0  0
   -2.1249    1.5812  -17.2923 N   0  0  0  0  0
   -8.1559   -4.1845  -20.6379 P   0  0  0  0  0
   -7.2923   -6.3691  -19.1986 P   0  0  0  0  0
 21 22  1  0  0  0
 23 53  1  0  0  0
 24 53  1  0  0  0
 24  2  1  0  0  0
 25  2  1  0  0  0
 25 26  1  0  0  0
 25 50  1  0  0  0
 26  3  1  0  0  0
 27  9  1  0  0  0
 27 10  1  0  0  0
 28 10  1  0  0  0
 28 29  1  0  0  0
 28 30  1  0  0  0
 29 11  1  0  0  0
 30 12  1  0  0  0
 30 31  1  0  0  0
 31 13  1  0  0  0
 31 32  1  0  0  0
 32 14  1  0  0  0
 32 27  1  0  0  0
 33 14  1  0  0  0
 33 34  1  0  0  0
 34 15  1  0  0  0
 35 15  1  0  0  0
 35 36  1  0  0  0
 36 16  1  0  0  0
 37 16  1  0  0  0
 37 38  1  0  0  0
 38 17  1  0  0  0
 39 17  1  0  0  0
 39 40  1  0  0  0
 41 42  1  0  0  0
 43 44  1  0  0  0
 45 46  1  0  0  0
 47 48  1  0  0  0
 48 43  1  0  0  0
 49 40  1  0  0  0
 50 18  1  0  0  0
 50 51  1  0  0  0
 51 19  1  0  0  0
 51 24  1  0  0  0
 52 54  1  0  0  0
 53 52  1  0  0  0
 54 21  1  0  0  0
 55  3  1  0  0  0
 55  5  1  0  0  0
 55  6  1  0  0  0
 56  6  1  0  0  0
 56  8  1  0  0  0
 56  9  1  0  0  0
 21  1  2  0  0  0
 22 23  2  0  0  0
 40 41  2  0  0  0
 42 43  2  0  0  0
 44 45  2  0  0  0
 46 47  2  0  0  0
 48 49  2  0  0  0
 52 20  2  0  0  0
 55  4  2  0  0  0
 56  7  2  0  0  0
M  END
> <rmsd>
0.679239035

$$$$
CHEMBL2092766 PubChem-70695498


 34 36  0  0  0  0  0  0  0  0999 V2000
   -3.8187    0.1960  -17.4831 N   0  0  0  0  0
   -2.2422    0.7009  -19.0271 N   0  0  0  0  0
   -1.2240    3.0879  -16.4543 N   0  0  0  0  0
   -3.1155    1.7939  -15.8122 N   0  0  0  0  0
   -0.1414    2.7920  -18.6037 N   0  0  0  0  0
   -4.9880   -0.3903  -16.8391 C   0  0  0  0  0
   -6.1655   -2.1729  -17.6572 C   0  0  0  0  0
   -6.7603   -0.9186  -18.2850 C   0  0  0  0  0
   -6.2570    0.1971  -17.4192 C   0  0  0  0  0
   -5.8148   -3.1617  -18.7674 C   0  0  0  0  0
   -7.1301   -2.8133  -16.6373 C   0  0  0  0  0
   -6.5536   -4.0449  -15.9480 C   0  0  0  0  0
   -5.7076   -3.6395  -14.7567 C   0  0  0  0  0
   -3.0308    1.1643  -17.0093 C   0  0  0  0  0
   -2.0872    1.4624  -17.9276 C   0  0  0  0  0
   -3.3258   -0.0685  -18.7218 C   0  0  0  0  0
   -1.1492    2.4486  -17.6594 C   0  0  0  0  0
   -2.1949    2.7677  -15.5379 C   0  0  0  0  0
   -4.9754   -1.7947  -17.0008 O   0  0  0  0  0
   -7.1488    0.4619  -16.3765 O   0  0  0  0  0
   -8.1581   -0.9457  -18.3677 O   0  0  0  0  0
   -6.9658   -3.6150  -19.4212 O   0  0  0  0  0
   -5.9200   -3.1628  -21.7745 O   0  0  0  0  0
   -5.1486   -5.3769  -20.6161 O   0  0  0  0  0
   -6.6089   -6.3179  -18.5995 O   0  0  0  0  0
   -4.5281   -7.7573  -19.2926 O   0  0  0  0  0
   -2.3750   -7.7132  -17.8126 O   0  0  0  0  0
   -2.5714   -5.7982  -19.5662 O   0  0  0  0  0
   -4.1205   -5.8555  -17.2776 O   0  0  0  0  0
   -6.7723   -7.6080  -20.8613 O   0  0  0  0  0
   -7.7152   -5.0420  -21.6638 O   0  0  0  0  0
   -6.4217   -4.2776  -20.8847 P   0  0  0  0  0
   -5.7872   -6.7318  -19.8014 P   0  0  0  0  0
   -3.3832   -6.8012  -18.4720 P   0  0  0  0  0
  1 14  1  0  0  0
  6  1  1  0  0  0
  6 19  1  0  0  0
  7 19  1  0  0  0
  7  8  1  0  0  0
  7 10  1  0  0  0
  7 11  1  0  0  0
  8  9  1  0  0  0
  8 21  1  0  0  0
  9 20  1  0  0  0
  9  6  1  0  0  0
 10 22  1  0  0  0
 11 12  1  0  0  0
 12 13  1  0  0  0
 14  4  1  0  0  0
 15  2  1  0  0  0
 15 17  1  0  0  0
 16  1  1  0  0  0
 17  5  1  0  0  0
 18  3  1  0  0  0
 32 22  1  0  0  0
 32 24  1  0  0  0
 32 31  1  0  0  0
 33 24  1  0  0  0
 33 26  1  0  0  0
 33 30  1  0  0  0
 34 26  1  0  0  0
 34 28  1  0  0  0
 34 29  1  0  0  0
 14 15  2  0  0  0
 16  2  2  0  0  0
 17  3  2  0  0  0
 18  4  2  0  0  0
 32 23  2  0  0  0
 33 25  2  0  0  0
 34 27  2  0  0  0
M  END
> <rmsd>
0.609876394

$$$$
CHEMBL387111 PubChem-44420947


 42 45  0  0  0  0  0  0  0  0999 V2000
   -9.1569    0.7575  -20.3908 C   0  0  0  0  0
   -7.7076    0.4050  -20.1043 C   0  0  0  0  0
   -6.9184   -3.1422  -17.6955 C   0  0  0  0  0
   -7.2701   -4.4327  -18.4412 C   0  0  0  0  0
   -6.1879   -6.3855  -18.9075 C   0  0  0  0  0
   -4.5683   -6.4909  -17.0648 C   0  0  0  0  0
   -3.4185   -7.0028  -16.4670 C   0  0  0  0  0
   -2.7026   -7.9807  -17.1484 C   0  0  0  0  0
   -4.2526   -7.9028  -18.9379 C   0  0  0  0  0
   -7.4744   -6.7603  -18.1785 C   0  0  0  0  0
   -7.8981   -5.4794  -17.5188 C   0  0  0  0  0
  -10.7908   -0.8867  -18.1499 C   0  0  0  0  0
  -10.7297   -2.1000  -18.8575 C   0  0  0  0  0
  -11.8891   -2.6579  -19.4010 C   0  0  0  0  0
  -13.1175   -2.0076  -19.2418 C   0  0  0  0  0
  -13.1867   -0.8010  -18.5361 C   0  0  0  0  0
  -12.0260   -0.2443  -17.9917 C   0  0  0  0  0
   -6.9312    1.4897  -19.4102 C   0  0  0  0  0
   -4.7651    2.3364  -18.6067 C   0  0  0  0  0
   -3.3550    1.8733  -18.5031 C   0  0  0  0  0
   -2.4631    2.1020  -19.5565 C   0  0  0  0  0
   -1.1360    1.6550  -19.4584 C   0  0  0  0  0
   -0.7050    0.9774  -18.3107 C   0  0  0  0  0
   -1.6010    0.7407  -17.2629 C   0  0  0  0  0
   -2.9260    1.1855  -17.3601 C   0  0  0  0  0
   -7.5649   -0.9182  -19.4765 N   0  0  0  0  0
   -8.2271   -4.1083  -19.5015 N   0  0  0  0  0
   -7.9948   -4.3185  -20.6918 N   0  0  0  0  0
   -7.7694   -4.5284  -21.8809 N   0  0  0  0  0
   -4.9801   -6.9444  -18.2857 N   0  0  0  0  0
   -3.1295   -8.4116  -18.3651 N   0  0  0  0  0
   -8.0628   -0.9418  -17.7762 P   0  0  0  0  0
   -7.1006   -0.1231  -16.9451 O   0  0  0  0  0
   -8.0738   -2.5356  -17.1890 O   0  0  0  0  0
   -6.0869   -4.9767  -18.9941 O   0  0  0  0  0
   -1.6595   -8.4641  -16.6377 O   0  0  0  0  0
   -4.6143   -8.3250  -20.0711 O   0  0  0  0  0
   -7.3094   -7.8077  -17.2654 O   0  0  0  0  0
   -7.3678   -5.3984  -16.2232 O   0  0  0  0  0
   -9.6490   -0.2919  -17.6030 O   0  0  0  0  0
   -7.5199    2.5148  -18.9646 O   0  0  0  0  0
   -5.5507    1.3456  -19.2587 O   0  0  0  0  0
  2  1  1  0  0  0
  2 26  1  0  0  0
  2 18  1  0  0  0
  3 34  1  0  0  0
  4  3  1  0  0  0
  4 27  1  0  0  0
  4 35  1  0  0  0
  5 35  1  0  0  0
  5 30  1  0  0  0
  5 10  1  0  0  0
  7  8  1  0  0  0
  8 31  1  0  0  0
  9 30  1  0  0  0
 10 38  1  0  0  0
 10 11  1  0  0  0
 11 39  1  0  0  0
 11  4  1  0  0  0
 12 40  1  0  0  0
 13 14  1  0  0  0
 15 16  1  0  0  0
 17 12  1  0  0  0
 18 42  1  0  0  0
 19 42  1  0  0  0
 19 20  1  0  0  0
 21 22  1  0  0  0
 23 24  1  0  0  0
 25 20  1  0  0  0
 30  6  1  0  0  0
 31  9  1  0  0  0
 32 26  1  0  0  0
 32 34  1  0  0  0
 32 40  1  0  0  0
  6  7  2  0  0  0
  8 36  2  0  0  0
  9 37  2  0  0  0
 12 13  2  0  0  0
 14 15  2  0  0  0
 16 17  2  0  0  0
 18 41  2  0  0  0
 20 21  2  0  0  0
 22 23  2  0  0  0
 24 25  2  0  0  0
 27 28  2  0  0  0
 28 29  2  0  0  0
 32 33  2  0  0  0
M  CHG  2  28   1  29  -1
M  END
> <rmsd>
0.768271565

$$$$
CHEMBL2163719 PubChem-71451529


 40 43  0  0  0  0  0  0  0  0999 V2000
   -5.5771    4.1934  -18.2653 C   0  0  0  0  0
   -6.9930    4.1543  -18.8066 C   0  0  0  0  0
   -7.7012    2.8976  -18.3372 C   0  0  0  0  0
   -5.8162   -1.3261  -19.1612 C   0  0  0  0  0
   -3.6041   -0.6621  -18.6373 C   0  0  0  0  0
   -2.6867    0.3171  -18.0382 C   0  0  0  0  0
   -2.3456    2.3688  -16.9080 C   0  0  0  0  0
   -0.9675    2.1618  -16.9242 C   0  0  0  0  0
   -0.4806    0.9995  -17.5189 C   0  0  0  0  0
   -3.9379   -2.7204  -19.7743 C   0  0  0  0  0
   -4.0428   -5.0240  -20.7647 C   0  0  0  0  0
   -4.4156   -5.8794  -19.5663 C   0  0  0  0  0
   -3.0375   -7.7881  -18.8439 C   0  0  0  0  0
   -1.6497   -9.5746  -18.1500 C   0  0  0  0  0
   -2.6101  -10.4938  -18.5674 C   0  0  0  0  0
   -3.7906  -10.0146  -19.1312 C   0  0  0  0  0
   -5.3315   -2.4877  -19.7873 C   0  0  0  0  0
   -7.1355   -3.0767  -21.3869 C   0  0  0  0  0
   -7.0889   -1.8407  -22.0542 C   0  0  0  0  0
   -8.0105   -1.5439  -23.0600 C   0  0  0  0  0
   -8.9836   -2.4802  -23.4125 C   0  0  0  0  0
   -9.0328   -3.7141  -22.7604 C   0  0  0  0  0
   -8.1091   -4.0216  -21.7471 C   0  0  0  0  0
   -9.0667   -6.2812  -21.4189 C   0  0  0  0  0
   -7.1605    1.7365  -19.0255 N   0  0  0  0  0
   -7.2237   -1.0868  -19.0770 N   0  0  0  0  0
   -4.9431   -0.4443  -18.6080 N   0  0  0  0  0
   -3.1771    1.4492  -17.4631 N   0  0  0  0  0
   -1.3430    0.1020  -18.0636 N   0  0  0  0  0
   -3.1189   -1.7936  -19.2112 N   0  0  0  0  0
   -1.8798   -8.2433  -18.2940 N   0  0  0  0  0
   -3.9842   -8.6758  -19.2596 N   0  0  0  0  0
   -7.8858    0.3266  -18.3293 S   0  0  0  0  0
   -7.6194    0.2805  -16.8503 O   0  0  0  0  0
   -9.3693    0.3556  -18.5682 O   0  0  0  0  0
   -3.3424   -3.8596  -20.3406 O   0  0  0  0  0
   -3.2411   -6.4140  -18.9725 O   0  0  0  0  0
   -6.2068   -3.4023  -20.3882 O   0  0  0  0  0
   -8.1402   -5.2551  -21.0874 O   0  0  0  0  0
   -2.3139  -12.3660  -18.3764 Br  0  0  0  0  0
  1  2  1  0  0  0
  2  3  1  0  0  0
  3 25  1  0  0  0
  5 27  1  0  0  0
  5  6  1  0  0  0
  6 29  1  0  0  0
  7 28  1  0  0  0
  8  9  1  0  0  0
 10 30  1  0  0  0
 10 36  1  0  0  0
 11 36  1  0  0  0
 11 12  1  0  0  0
 12 37  1  0  0  0
 13 37  1  0  0  0
 13 32  1  0  0  0
 14 31  1  0  0  0
 15 40  1  0  0  0
 15 16  1  0  0  0
 17 38  1  0  0  0
 17  4  1  0  0  0
 18 38  1  0  0  0
 19 20  1  0  0  0
 21 22  1  0  0  0
 23 39  1  0  0  0
 23 18  1  0  0  0
 24 39  1  0  0  0
 26  4  1  0  0  0
 33 25  1  0  0  0
 33 26  1  0  0  0
  4 27  2  0  0  0
  5 30  2  0  0  0
  6 28  2  0  0  0
  7  8  2  0  0  0
  9 29  2  0  0  0
 10 17  2  0  0  0
 13 31  2  0  0  0
 14 15  2  0  0  0
 16 32  2  0  0  0
 18 19  2  0  0  0
 20 21  2  0  0  0
 22 23  2  0  0  0
 33 34  2  0  0  0
 33 35  2  0  0  0
M  END
> <rmsd>
0.86672008

$$$$
CHEMBL427600 PubChem-44413843


 93104  0  0  0  0  0  0  0  0999 V2000
   -8.7795  -10.1882  -18.3321 N   0  0  0  0  0
   -6.9474   -8.6737  -18.4356 N   0  0  0  0  0
   -9.9615  -10.9080  -20.3234 N   0  0  0  0  0
   -8.0036   -9.1396  -21.7474 N   0  0  0  0  0
   -6.3983   -7.9536  -20.6798 N   0  0  0  0  0
   -4.5956   -0.2642  -18.8446 N   0  0  0  0  0
   -3.0567    0.6917  -17.2481 N   0  0  0  0  0
   -1.2418    1.8689  -18.2447 N   0  0  0  0  0
   -3.5010    0.4032  -20.7113 N   0  0  0  0  0
   -0.9834    2.0062  -20.6527 N   0  0  0  0  0
   -7.5623    6.9339  -20.1116 N   0  0  0  0  0
   -7.3491    6.8243  -17.7050 N   0  0  0  0  0
   -8.8676    8.2419  -16.5397 N   0  0  0  0  0
   -9.2180    8.4783  -20.1680 N   0  0  0  0  0
  -10.4630    9.6455  -17.7087 N   0  0  0  0  0
   -8.3755   13.4761  -19.1399 N   0  0  0  0  0
   -8.4173   15.8716  -18.8231 N   0  0  0  0  0
  -10.1485   16.6231  -17.3736 N   0  0  0  0  0
  -10.1503   12.9927  -17.8171 N   0  0  0  0  0
  -11.7106   15.0860  -16.3379 N   0  0  0  0  0
   -7.7992   -9.4582  -17.7076 C   0  0  0  0  0
   -7.1073   -8.6481  -19.7814 C   0  0  0  0  0
   -8.0615   -9.3574  -20.4192 C   0  0  0  0  0
   -8.9334  -10.1553  -19.6905 C   0  0  0  0  0
   -6.9591   -8.2715  -21.8731 C   0  0  0  0  0
   -5.2853   -7.0350  -20.4587 C   0  0  0  0  0
   -5.7682   -5.7699  -19.7736 C   0  0  0  0  0
   -7.6841   -3.2884  -19.3901 C   0  0  0  0  0
   -7.2458   -2.3693  -18.2551 C   0  0  0  0  0
   -7.9481   -1.0383  -18.3644 C   0  0  0  0  0
   -6.8846   -0.0259  -18.0253 C   0  0  0  0  0
   -5.6054   -0.8349  -17.9594 C   0  0  0  0  0
   -3.4836    0.3912  -18.4971 C   0  0  0  0  0
   -1.9169    1.4409  -17.1276 C   0  0  0  0  0
   -1.6842    1.5527  -19.5006 C   0  0  0  0  0
   -2.8395    0.7982  -19.6089 C   0  0  0  0  0
   -4.5835   -0.2517  -20.2034 C   0  0  0  0  0
   -5.5282    3.9367  -18.1513 C   0  0  0  0  0
   -5.5692    4.1544  -19.6543 C   0  0  0  0  0
   -4.4546    5.1015  -20.0605 C   0  0  0  0  0
   -5.1848    6.4075  -20.1732 C   0  0  0  0  0
   -6.5703    5.9716  -20.5701 C   0  0  0  0  0
   -7.8734    7.2942  -18.8617 C   0  0  0  0  0
   -7.8531    7.3160  -16.5322 C   0  0  0  0  0
   -9.3898    8.7076  -17.7116 C   0  0  0  0  0
   -8.8628    8.2142  -18.8968 C   0  0  0  0  0
   -8.3932    7.6704  -20.8928 C   0  0  0  0  0
   -5.6311   10.2934  -20.8868 C   0  0  0  0  0
   -5.8580   11.7963  -20.9265 C   0  0  0  0  0
   -4.9799   12.4999  -19.9057 C   0  0  0  0  0
   -5.9421   13.3957  -19.1562 C   0  0  0  0  0
   -7.1968   13.3276  -19.9915 C   0  0  0  0  0
   -8.8732   14.6083  -18.6365 C   0  0  0  0  0
   -9.0699   16.8876  -18.1833 C   0  0  0  0  0
  -10.6022   15.3447  -17.1909 C   0  0  0  0  0
   -9.9312   14.3212  -17.8471 C   0  0  0  0  0
   -9.1699   12.4986  -18.6279 C   0  0  0  0  0
   -5.2184   -5.9145  -18.3858 C   0  0  0  0  0
   -4.0471   -6.8437  -18.5617 C   0  0  0  0  0
   -3.8852   -7.6987  -17.3172 C   0  0  0  0  0
   -5.2206   -4.6547  -20.4217 O   0  0  0  0  0
   -7.4038   -5.0550  -21.9086 O   0  0  0  0  0
   -7.2873   -2.7578  -20.6244 O   0  0  0  0  0
   -5.8564   -2.1705  -18.3221 O   0  0  0  0  0
   -7.1112    0.5814  -16.7832 O   0  0  0  0  0
   -6.9879    2.9709  -15.7350 O   0  0  0  0  0
   -5.5238    2.5690  -17.8840 O   0  0  0  0  0
   -6.8230    4.7030  -20.0152 O   0  0  0  0  0
   -4.6286    7.2541  -21.1358 O   0  0  0  0  0
   -4.4846    8.6853  -18.8775 O   0  0  0  0  0
   -4.2849    9.9985  -21.1510 O   0  0  0  0  0
   -7.2087   12.0837  -20.6489 O   0  0  0  0  0
   -5.4925   14.7171  -19.0685 O   0  0  0  0  0
   -4.8649   16.4304  -17.1939 O   0  0  0  0  0
   -6.4729   14.5051  -16.4733 O   0  0  0  0  0
   -3.7930   14.0564  -16.9833 O   0  0  0  0  0
   -4.0048   13.2404  -20.5844 O   0  0  0  0  0
   -2.2813    8.3623  -20.2285 O   0  0  0  0  0
   -3.9530    4.7034  -21.3011 O   0  0  0  0  0
   -8.3003    2.7647  -17.9857 O   0  0  0  0  0
   -9.0241   -0.9958  -17.4745 O   0  0  0  0  0
   -5.6788   -3.3224  -22.7747 O   0  0  0  0  0
   -4.7948   -4.6970  -17.8482 O   0  0  0  0  0
   -4.2862   -7.6615  -19.6841 O   0  0  0  0  0
   -2.6246   -8.3022  -17.3278 O   0  0  0  0  0
   -3.1745  -10.3430  -18.8927 O   0  0  0  0  0
   -1.5463  -10.8025  -16.8991 O   0  0  0  0  0
   -4.2491  -10.4290  -16.5007 O   0  0  0  0  0
   -6.4380   -3.9971  -21.4214 P   0  0  0  0  0
   -6.9757    2.2506  -17.0623 P   0  0  0  0  0
   -3.9556    8.5725  -20.2935 P   0  0  0  0  0
   -5.1491   14.9631  -17.4265 P   0  0  0  0  0
   -2.9140   -9.9722  -17.4473 P   0  0  0  0  0
  5 22  1  0  0  0
  6 33  1  0  0  0
 11 43  1  0  0  0
 16 53  1  0  0  0
 21  2  1  0  0  0
 22 23  1  0  0  0
 23  4  1  0  0  0
 24  3  1  0  0  0
 24  1  1  0  0  0
 25  5  1  0  0  0
 26  5  1  0  0  0
 26 27  1  0  0  0
 26 84  1  0  0  0
 27 61  1  0  0  0
 27 58  1  0  0  0
 28 63  1  0  0  0
 29 28  1  0  0  0
 29 30  1  0  0  0
 29 64  1  0  0  0
 30 31  1  0  0  0
 30 81  1  0  0  0
 31 32  1  0  0  0
 31 65  1  0  0  0
 32  6  1  0  0  0
 32 64  1  0  0  0
 34  7  1  0  0  0
 35  8  1  0  0  0
 35 10  1  0  0  0
 36  9  1  0  0  0
 36 33  1  0  0  0
 37  6  1  0  0  0
 38 67  1  0  0  0
 39 38  1  0  0  0
 39 40  1  0  0  0
 39 68  1  0  0  0
 40 41  1  0  0  0
 40 79  1  0  0  0
 41 42  1  0  0  0
 41 69  1  0  0  0
 42 11  1  0  0  0
 42 68  1  0  0  0
 44 12  1  0  0  0
 45 13  1  0  0  0
 45 15  1  0  0  0
 46 14  1  0  0  0
 46 43  1  0  0  0
 47 11  1  0  0  0
 48 71  1  0  0  0
 49 48  1  0  0  0
 49 50  1  0  0  0
 49 72  1  0  0  0
 50 51  1  0  0  0
 50 77  1  0  0  0
 51 52  1  0  0  0
 51 73  1  0  0  0
 52 16  1  0  0  0
 52 72  1  0  0  0
 54 17  1  0  0  0
 55 18  1  0  0  0
 55 20  1  0  0  0
 56 19  1  0  0  0
 56 53  1  0  0  0
 57 16  1  0  0  0
 58 83  1  0  0  0
 58 59  1  0  0  0
 59 84  1  0  0  0
 59 60  1  0  0  0
 60 85  1  0  0  0
 89 61  1  0  0  0
 89 63  1  0  0  0
 89 82  1  0  0  0
 90 65  1  0  0  0
 90 67  1  0  0  0
 90 80  1  0  0  0
 91 69  1  0  0  0
 91 71  1  0  0  0
 91 78  1  0  0  0
 92 73  1  0  0  0
 92 75  1  0  0  0
 92 76  1  0  0  0
 93 85  1  0  0  0
 93 87  1  0  0  0
 93 88  1  0  0  0
 21  1  2  0  0  0
 22  2  2  0  0  0
 23 24  2  0  0  0
 25  4  2  0  0  0
 33  7  2  0  0  0
 34  8  2  0  0  0
 35 36  2  0  0  0
 37  9  2  0  0  0
 43 12  2  0  0  0
 44 13  2  0  0  0
 45 46  2  0  0  0
 47 14  2  0  0  0
 53 17  2  0  0  0
 54 18  2  0  0  0
 55 56  2  0  0  0
 57 19  2  0  0  0
 89 62  2  0  0  0
 90 66  2  0  0  0
 91 70  2  0  0  0
 92 74  2  0  0  0
 93 86  2  0  0  0
M  END
> <rmsd>
0.630717754

$$$$
CHEMBL4594631 PubChem-155564832


 81 86  0  0  0  0  0  0  0  0999 V2000
   -7.2664   -0.1665  -16.3636 O   0  0  0  0  0
   -7.6899    2.0460  -17.3466 O   0  0  0  0  0
   -6.5170    0.2248  -18.8465 O   0  0  0  0  0
   -5.2245    2.6136  -18.5031 O   0  0  0  0  0
   -3.0441   -0.7457  -18.3227 O   0  0  0  0  0
   -3.9947   -5.6713  -17.9810 O   0  0  0  0  0
   -2.7094   -6.5434  -20.1017 O   0  0  0  0  0
   -2.4288   -7.7676  -18.0036 O   0  0  0  0  0
   -4.6586   -8.0635  -19.2823 O   0  0  0  0  0
   -6.3734   -6.0939  -19.5203 O   0  0  0  0  0
   -7.5377   -5.9964  -21.8734 O   0  0  0  0  0
   -8.9555   -5.7082  -19.8875 O   0  0  0  0  0
   -8.0688   -8.0851  -20.4295 O   0  0  0  0  0
    1.0013    1.5752  -17.4122 O   0  0  0  0  0
    1.9683    3.6814  -18.6774 O   0  0  0  0  0
    1.4285    3.9266  -16.2996 O   0  0  0  0  0
    3.5438    2.5569  -16.9529 O   0  0  0  0  0
   -3.1338    4.0783  -17.9973 O   0  0  0  0  0
   -2.4794    7.9195  -13.5868 O   0  0  0  0  0
   -3.3401   10.1736  -14.5576 O   0  0  0  0  0
   -6.0072   10.5337  -11.5813 O   0  0  0  0  0
   -7.2042   16.1558  -13.3868 O   0  0  0  0  0
   -6.4096   18.6548  -13.2656 O   0  0  0  0  0
   -5.7194   17.1520  -11.4602 O   0  0  0  0  0
   -8.1877   17.9726  -11.5111 O   0  0  0  0  0
   -9.6995   15.7594  -12.1462 O   0  0  0  0  0
  -12.0180   16.8810  -11.6635 O   0  0  0  0  0
  -11.0469   15.4673   -9.9109 O   0  0  0  0  0
  -12.0533   14.3086  -12.0060 O   0  0  0  0  0
   -4.9894   12.3278  -14.5911 O   0  0  0  0  0
   -5.6356   13.2987  -16.9441 O   0  0  0  0  0
   -5.2994   10.8807  -16.7551 O   0  0  0  0  0
   -7.4654   11.8968  -15.7559 O   0  0  0  0  0
   -4.6680    6.4092   -9.5500 O   0  0  0  0  0
   -6.8957    7.1299   -8.3393 O   0  0  0  0  0
   -5.5002    5.4201   -7.2625 O   0  0  0  0  0
   -4.6803    7.8902   -7.2124 O   0  0  0  0  0
   -9.1741    0.0665  -18.1131 O   0  0  0  0  0
   -7.6512    0.5691  -17.6169 S   0  0  0  0  0
   -3.4086   -7.0175  -18.8609 S   0  0  0  0  0
   -7.7671   -6.4350  -20.4555 S   0  0  0  0  0
    1.9710    2.9906  -17.3408 S   0  0  0  0  0
   -6.8394   17.5053  -12.3988 S   0  0  0  0  0
  -11.2288   15.6330  -11.3922 S   0  0  0  0  0
   -5.8306   12.0995  -16.0611 S   0  0  0  0  0
   -5.4868    6.6896   -8.0733 S   0  0  0  0  0
   -5.1413    0.3160  -18.6213 C   0  0  0  0  0
   -4.5308    1.5638  -18.4244 C   0  0  0  0  0
   -3.1481    1.6303  -18.1651 C   0  0  0  0  0
   -2.4565    2.8490  -17.9601 C   0  0  0  0  0
   -1.0775    2.8163  -17.7101 C   0  0  0  0  0
   -0.3736    1.6099  -17.6573 C   0  0  0  0  0
   -1.0567    0.4109  -17.8554 C   0  0  0  0  0
   -2.4296    0.4115  -18.1133 C   0  0  0  0  0
   -4.3438   -0.8473  -18.5911 C   0  0  0  0  0
   -4.8963   -2.1990  -18.8487 C   0  0  0  0  0
   -6.0384   -2.3977  -19.6376 C   0  0  0  0  0
   -6.5184   -3.6865  -19.8759 C   0  0  0  0  0
   -5.8618   -4.8049  -19.3381 C   0  0  0  0  0
   -4.6962   -4.6125  -18.5683 C   0  0  0  0  0
   -4.2323   -3.3169  -18.3288 C   0  0  0  0  0
   -2.5049    5.3389  -17.7785 C   0  0  0  0  0
   -2.0639    5.4712  -16.3353 C   0  0  0  0  0
   -1.4346    6.8335  -16.1190 C   0  0  0  0  0
   -0.6821    6.8685  -14.7976 C   0  0  0  0  0
   -1.6248    6.7829  -13.6090 C   0  0  0  0  0
   -3.4494    8.1236  -12.5983 C   0  0  0  0  0
   -3.6137    7.1812  -11.5706 C   0  0  0  0  0
   -4.5495    7.3733  -10.5557 C   0  0  0  0  0
   -5.3451    8.5241  -10.5670 C   0  0  0  0  0
   -5.2179    9.4672  -11.5878 C   0  0  0  0  0
   -4.2638    9.2805  -12.6158 C   0  0  0  0  0
   -4.1797   10.2658  -13.6204 C   0  0  0  0  0
   -5.0444   11.3661  -13.5810 C   0  0  0  0  0
   -5.9668   11.4778  -12.5173 C   0  0  0  0  0
   -6.9185   12.6053  -12.4030 C   0  0  0  0  0
   -8.1167   12.4315  -11.6962 C   0  0  0  0  0
   -9.0368   13.4761  -11.5927 C   0  0  0  0  0
   -8.7638   14.7211  -12.1790 C   0  0  0  0  0
   -7.5372   14.9196  -12.8360 C   0  0  0  0  0
   -6.6358   13.8607  -12.9604 C   0  0  0  0  0
 39  3  1  0  0  0
 39 38  1  0  0  0
 40  6  1  0  0  0
 40  9  1  0  0  0
 41 10  1  0  0  0
 41 13  1  0  0  0
 42 14  1  0  0  0
 42 17  1  0  0  0
 43 22  1  0  0  0
 43 25  1  0  0  0
 44 26  1  0  0  0
 44 29  1  0  0  0
 45 30  1  0  0  0
 45 33  1  0  0  0
 46 34  1  0  0  0
 46 37  1  0  0  0
 47  3  1  0  0  0
 47 48  1  0  0  0
 48 49  1  0  0  0
 50 51  1  0  0  0
 50 18  1  0  0  0
 52 53  1  0  0  0
 52 14  1  0  0  0
 54  5  1  0  0  0
 54 49  1  0  0  0
 55  5  1  0  0  0
 55 56  1  0  0  0
 57 58  1  0  0  0
 59 60  1  0  0  0
 59 10  1  0  0  0
 60  6  1  0  0  0
 61 56  1  0  0  0
 62 18  1  0  0  0
 62 63  1  0  0  0
 63 64  1  0  0  0
 64 65  1  0  0  0
 65 66  1  0  0  0
 66 19  1  0  0  0
 67 19  1  0  0  0
 68 69  1  0  0  0
 69 34  1  0  0  0
 70 71  1  0  0  0
 71 21  1  0  0  0
 72 73  1  0  0  0
 72 67  1  0  0  0
 73 74  1  0  0  0
 74 30  1  0  0  0
 75 21  1  0  0  0
 75 76  1  0  0  0
 77 78  1  0  0  0
 79 80  1  0  0  0
 79 26  1  0  0  0
 80 22  1  0  0  0
 81 76  1  0  0  0
 39  1  2  0  0  0
 39  2  2  0  0  0
 40  7  2  0  0  0
 40  8  2  0  0  0
 41 11  2  0  0  0
 41 12  2  0  0  0
 42 15  2  0  0  0
 42 16  2  0  0  0
 43 23  2  0  0  0
 43 24  2  0  0  0
 44 27  2  0  0  0
 44 28  2  0  0  0
 45 31  2  0  0  0
 45 32  2  0  0  0
 46 35  2  0  0  0
 46 36  2  0  0  0
 48  4  2  0  0  0
 49 50  2  0  0  0
 51 52  2  0  0  0
 53 54  2  0  0  0
 55 47  2  0  0  0
 56 57  2  0  0  0
 58 59  2  0  0  0
 60 61  2  0  0  0
 67 68  2  0  0  0
 69 70  2  0  0  0
 71 72  2  0  0  0
 73 20  2  0  0  0
 74 75  2  0  0  0
 76 77  2  0  0  0
 78 79  2  0  0  0
 80 81  2  0  0  0
M  END
> <rmsd>
0.630533934

$$$$
CHEMBL4092524 PubChem-137654432


 75 83  0  0  0  0  0  0  0  0999 V2000
  -17.1417  -14.2482  -25.3321 N   0  0  0  0  0
  -17.9387  -13.5580  -23.1512 N   0  0  0  0  0
  -16.4486  -13.0687  -21.3643 N   0  0  0  0  0
  -14.4359  -13.9384  -24.1188 N   0  0  0  0  0
  -13.0389  -11.4999  -20.5994 N   0  0  0  0  0
   -5.1294    1.4495  -17.5426 N   0  0  0  0  0
   -3.7324   -0.4500  -18.0990 N   0  0  0  0  0
   -2.1703   -2.1826  -18.7272 N   0  0  0  0  0
   -1.4417    0.1033  -18.4261 N   0  0  0  0  0
   -3.4894    3.0084  -17.5758 N   0  0  0  0  0
   -5.7973   -6.0297  -19.5592 N   0  0  0  0  0
   -4.8476   -4.5800  -17.8721 N   0  0  0  0  0
   -3.7666   -3.3132  -16.1244 N   0  0  0  0  0
   -2.9564   -5.5020  -16.7620 N   0  0  0  0  0
   -4.3296   -7.7364  -19.3033 N   0  0  0  0  0
  -16.8988  -13.8427  -23.9884 C   0  0  0  0  0
  -17.7210  -13.1736  -21.8537 C   0  0  0  0  0
  -15.4194  -13.3508  -22.1995 C   0  0  0  0  0
  -15.6068  -13.7264  -23.4883 C   0  0  0  0  0
  -13.4798  -13.6856  -23.1836 C   0  0  0  0  0
  -14.0681  -13.3197  -21.9742 C   0  0  0  0  0
  -13.3591  -12.9322  -20.7027 C   0  0  0  0  0
  -12.1094  -11.1073  -21.6553 C   0  0  0  0  0
  -12.8721  -10.2887  -22.6734 C   0  0  0  0  0
  -12.0440   -9.1085  -23.1757 C   0  0  0  0  0
   -8.9535   -6.3240  -20.4667 C   0  0  0  0  0
   -9.0829   -5.3626  -19.3000 C   0  0  0  0  0
   -9.9339   -4.1379  -19.6396 C   0  0  0  0  0
   -7.7896   -0.9470  -18.1267 C   0  0  0  0  0
   -7.4914   -0.9754  -16.6356 C   0  0  0  0  0
   -7.0026   -2.3546  -16.2225 C   0  0  0  0  0
   -6.4572    0.8601  -17.4182 C   0  0  0  0  0
   -3.9604    0.8576  -17.8180 C   0  0  0  0  0
   -2.4520   -0.8257  -18.4044 C   0  0  0  0  0
   -1.6832    1.4199  -18.1486 C   0  0  0  0  0
   -2.9846    1.7899  -17.8426 C   0  0  0  0  0
   -4.8178    2.7615  -17.3946 C   0  0  0  0  0
   -6.8226    0.0843  -18.6561 C   0  0  0  0  0
   -6.6041    0.7656  -20.7476 C   0  0  0  0  0
   -6.9228   -5.2127  -20.0149 C   0  0  0  0  0
   -4.9032   -5.7117  -18.6163 C   0  0  0  0  0
   -3.8574   -4.4800  -16.9334 C   0  0  0  0  0
   -3.0221   -6.6404  -17.5147 C   0  0  0  0  0
   -4.0310   -6.7305  -18.4625 C   0  0  0  0  0
   -5.4262   -7.2716  -19.9662 C   0  0  0  0  0
   -7.6910   -5.8748  -21.1497 C   0  0  0  0  0
   -7.3580   -5.4025  -23.2845 C   0  0  0  0  0
  -14.1476   -9.8503  -21.9917 C   0  0  0  0  0
  -14.2475  -10.6874  -20.7290 C   0  0  0  0  0
  -17.2731   -9.3873  -24.8900 C   0  0  0  0  0
  -17.9476  -10.6758  -25.3174 C   0  0  0  0  0
  -17.4976  -11.0593  -26.7144 C   0  0  0  0  0
  -11.9603   -8.0901  -22.2160 O   0  0  0  0  0
   -9.4394   -8.1504  -23.0486 O   0  0  0  0  0
  -10.0729   -6.3038  -21.3128 O   0  0  0  0  0
   -9.8536   -3.1937  -18.6152 O   0  0  0  0  0
   -8.9745   -1.7343  -20.6548 O   0  0  0  0  0
   -9.1187   -0.5431  -18.3187 O   0  0  0  0  0
   -8.0637   -3.2609  -16.2280 O   0  0  0  0  0
   -6.5022   -0.0197  -16.3282 O   0  0  0  0  0
   -0.7500    2.2637  -18.1754 O   0  0  0  0  0
   -7.4005    0.9256  -19.6111 O   0  0  0  0  0
  -11.3697   -1.1936  -19.7660 O   0  0  0  0  0
   -7.7878   -4.9511  -18.9284 O   0  0  0  0  0
   -2.1962   -7.5748  -17.3436 O   0  0  0  0  0
   -7.9665   -4.9158  -22.1292 O   0  0  0  0  0
   -9.9056   -9.0077  -20.6156 O   0  0  0  0  0
  -15.2365  -10.1229  -22.8240 O   0  0  0  0  0
  -15.5350   -7.5549  -23.3274 O   0  0  0  0  0
  -17.6766   -9.0547  -23.5952 O   0  0  0  0  0
  -16.1622  -11.4636  -26.6907 O   0  0  0  0  0
  -16.6343   -8.4364  -21.1238 O   0  0  0  0  0
  -10.3124   -7.9029  -21.8355 P   0  0  0  0  0
   -9.7960   -1.6784  -19.3830 P   0  0  0  0  0
  -16.2420   -8.7572  -22.7383 P   0  0  0  0  0
  1 16  1  0  0  0
  4 20  1  0  0  0
  6 33  1  0  0  0
  9 35  1  0  0  0
 11 41  1  0  0  0
 14 43  1  0  0  0
 17  2  1  0  0  0
 18  3  1  0  0  0
 19  4  1  0  0  0
 19 16  1  0  0  0
 21 18  1  0  0  0
 22 21  1  0  0  0
 22  5  1  0  0  0
 23  5  1  0  0  0
 23 24  1  0  0  0
 24 25  1  0  0  0
 24 48  1  0  0  0
 25 53  1  0  0  0
 26 55  1  0  0  0
 26 27  1  0  0  0
 27 28  1  0  0  0
 27 64  1  0  0  0
 28 56  1  0  0  0
 29 58  1  0  0  0
 29 30  1  0  0  0
 30 31  1  0  0  0
 30 60  1  0  0  0
 31 59  1  0  0  0
 32 60  1  0  0  0
 32  6  1  0  0  0
 32 38  1  0  0  0
 33  7  1  0  0  0
 34  8  1  0  0  0
 34  9  1  0  0  0
 35 36  1  0  0  0
 36 10  1  0  0  0
 37  6  1  0  0  0
 38 62  1  0  0  0
 38 29  1  0  0  0
 39 62  1  0  0  0
 40 64  1  0  0  0
 40 11  1  0  0  0
 40 46  1  0  0  0
 41 12  1  0  0  0
 42 13  1  0  0  0
 42 14  1  0  0  0
 43 44  1  0  0  0
 44 15  1  0  0  0
 45 11  1  0  0  0
 46 66  1  0  0  0
 46 26  1  0  0  0
 47 66  1  0  0  0
 48 49  1  0  0  0
 48 68  1  0  0  0
 49  5  1  0  0  0
 50 70  1  0  0  0
 50 51  1  0  0  0
 51 52  1  0  0  0
 52 71  1  0  0  0
 73 53  1  0  0  0
 73 55  1  0  0  0
 73 67  1  0  0  0
 74 56  1  0  0  0
 74 58  1  0  0  0
 74 63  1  0  0  0
 75 68  1  0  0  0
 75 70  1  0  0  0
 75 72  1  0  0  0
 16  2  2  0  0  0
 17  3  2  0  0  0
 18 19  2  0  0  0
 20 21  2  0  0  0
 34  7  2  0  0  0
 35 61  2  0  0  0
 36 33  2  0  0  0
 37 10  2  0  0  0
 42 12  2  0  0  0
 43 65  2  0  0  0
 44 41  2  0  0  0
 45 15  2  0  0  0
 73 54  2  0  0  0
 74 57  2  0  0  0
 75 69  2  0  0  0
M  END
> <rmsd>
0.587672591

$$$$
CHEMBL1761331 PubChem-54583235


 45 49  0  0  0  0  0  0  0  0999 V2000
   -0.4899    0.0125  -20.0424 N   0  0  0  0  0
   -1.3474    1.2157  -18.1201 N   0  0  0  0  0
   -3.4472    0.6771  -17.1376 N   0  0  0  0  0
   -3.0252   -1.5594  -19.8029 N   0  0  0  0  0
   -4.5915   -1.1568  -18.2177 N   0  0  0  0  0
   -4.4834   -9.5636  -17.8764 N   0  0  0  0  0
   -6.4089  -15.8748  -15.9389 N   0  0  0  0  0
   -7.3196  -15.3179  -15.0849 N   0  0  0  0  0
   -1.4966    0.2412  -19.0638 C   0  0  0  0  0
   -2.3103    1.4359  -17.1668 C   0  0  0  0  0
   -3.5810   -0.2907  -18.0729 C   0  0  0  0  0
   -2.6496   -0.5304  -19.0190 C   0  0  0  0  0
   -4.2259   -1.9255  -19.2776 C   0  0  0  0  0
   -5.7853   -1.2852  -17.3823 C   0  0  0  0  0
   -7.7243   -1.9369  -18.3992 C   0  0  0  0  0
   -7.8313   -2.5026  -19.8043 C   0  0  0  0  0
   -5.8684   -9.8503  -18.2073 C   0  0  0  0  0
   -6.2410  -11.2096  -17.7293 C   0  0  0  0  0
   -5.6446  -12.3466  -18.2861 C   0  0  0  0  0
   -6.0049  -13.6182  -17.8368 C   0  0  0  0  0
   -6.9590  -13.7596  -16.8229 C   0  0  0  0  0
   -7.3870  -15.1265  -16.3781 C   0  0  0  0  0
   -8.5196  -15.8762  -17.0902 C   0  0  0  0  0
   -7.5699  -12.6180  -16.2814 C   0  0  0  0  0
   -7.2074  -11.3472  -16.7307 C   0  0  0  0  0
   -7.6842   -0.4309  -18.4816 C   0  0  0  0  0
   -6.6363   -0.0387  -17.4800 C   0  0  0  0  0
   -6.5479   -2.4080  -17.7755 O   0  0  0  0  0
   -8.0381   -3.8848  -19.7625 O   0  0  0  0  0
   -6.0319   -3.6423  -21.4932 O   0  0  0  0  0
   -7.2488   -5.9337  -21.4440 O   0  0  0  0  0
   -5.5562   -5.1235  -19.3918 O   0  0  0  0  0
   -7.2490   -5.2924  -17.3863 O   0  0  0  0  0
   -7.3008   -7.2993  -19.0508 O   0  0  0  0  0
   -5.2041   -6.8980  -17.2804 O   0  0  0  0  0
   -4.3772   -7.6530  -19.7391 O   0  0  0  0  0
   -2.5868   -7.5140  -17.8581 O   0  0  0  0  0
   -8.9351    0.1122  -18.1791 O   0  0  0  0  0
   -7.2035    0.2200  -16.2307 O   0  0  0  0  0
   -6.7056   -4.6095  -20.5394 P   0  0  0  0  0
   -6.3550   -6.1313  -18.2714 P   0  0  0  0  0
   -4.1904   -7.8748  -18.2509 P   0  0  0  0  0
   -9.6749  -15.1195  -17.0343 F   0  0  0  0  0
   -8.1763  -16.0720  -18.4161 F   0  0  0  0  0
   -8.7648  -17.1075  -16.5032 F   0  0  0  0  0
  1  9  1  0  0  0
  5 11  1  0  0  0
 10  2  1  0  0  0
 11  3  1  0  0  0
 12  4  1  0  0  0
 12  9  1  0  0  0
 13  5  1  0  0  0
 14  5  1  0  0  0
 14 28  1  0  0  0
 15 28  1  0  0  0
 15 16  1  0  0  0
 15 26  1  0  0  0
 16 29  1  0  0  0
 17  6  1  0  0  0
 17 18  1  0  0  0
 19 20  1  0  0  0
 21 24  1  0  0  0
 22 21  1  0  0  0
 22 23  1  0  0  0
 22  7  1  0  0  0
 22  8  1  0  0  0
 23 43  1  0  0  0
 23 44  1  0  0  0
 23 45  1  0  0  0
 25 18  1  0  0  0
 26 38  1  0  0  0
 26 27  1  0  0  0
 27 39  1  0  0  0
 27 14  1  0  0  0
 40 29  1  0  0  0
 40 31  1  0  0  0
 40 32  1  0  0  0
 41 32  1  0  0  0
 41 34  1  0  0  0
 41 35  1  0  0  0
 42 35  1  0  0  0
 42 37  1  0  0  0
 42  6  1  0  0  0
  7  8  2  0  0  0
  9  2  2  0  0  0
 10  3  2  0  0  0
 11 12  2  0  0  0
 13  4  2  0  0  0
 18 19  2  0  0  0
 20 21  2  0  0  0
 24 25  2  0  0  0
 40 30  2  0  0  0
 41 33  2  0  0  0
 42 36  2  0  0  0
M  END
> <rmsd>
0.686716557

$$$$
CHEMBL1161031


 34 35  0  0  0  0  0  0  0  0999 V2000
   -0.4095    1.4151  -17.5868 C   0  0  0  0  0
   -1.8792    1.2370  -17.7554 C   0  0  0  0  0
   -3.7285   -0.2629  -17.8755 C   0  0  0  0  0
   -5.6836   -3.4074  -18.1295 C   0  0  0  0  0
   -4.8207   -4.3728  -17.5864 C   0  0  0  0  0
   -5.2092   -5.7148  -17.5348 C   0  0  0  0  0
   -4.2686   -6.7357  -16.9959 C   0  0  0  0  0
   -6.4599   -6.0982  -18.0320 C   0  0  0  0  0
   -7.3265   -5.1382  -18.5676 C   0  0  0  0  0
   -8.6450   -5.5483  -19.1272 C   0  0  0  0  0
   -6.9350   -3.7955  -18.6181 C   0  0  0  0  0
   -4.6246    0.8274  -18.0493 C   0  0  0  0  0
   -6.1063    0.6019  -18.1051 C   0  0  0  0  0
   -4.0983    2.1464  -18.0948 C   0  0  0  0  0
   -4.9327    3.3547  -18.2975 C   0  0  0  0  0
   -2.7157    2.3396  -17.9460 C   0  0  0  0  0
   -2.4010   -0.0144  -17.7271 N   0  0  0  0  0
   -4.1491   -1.6375  -17.8369 N   0  0  0  0  0
   -5.3053   -2.0312  -18.1938 N   0  0  0  0  0
   -3.2877   -7.4709  -18.3392 P   0  0  0  0  0
   -8.4882   -5.9428  -20.8952 P   0  0  0  0  0
   -8.2762    0.5577  -16.9242 P   0  0  0  0  0
   -4.1765   -8.3382  -19.2036 O   0  0  0  0  0
   -2.0571   -8.4187  -17.6712 O   0  0  0  0  0
   -2.6015   -6.2459  -19.2817 O   0  0  0  0  0
   -7.5739   -7.1342  -21.0724 O   0  0  0  0  0
   -7.8477   -4.6137  -21.7213 O   0  0  0  0  0
  -10.0158   -6.3080  -21.5243 O   0  0  0  0  0
   -6.5950    0.3478  -16.8206 O   0  0  0  0  0
   -8.5989    2.0246  -17.1141 O   0  0  0  0  0
   -8.9031   -0.3329  -18.2215 O   0  0  0  0  0
   -8.9888    0.0140  -15.4898 O   0  0  0  0  0
   -6.1717    3.3079  -18.5178 O   0  0  0  0  0
   -2.1745    3.6237  -17.9859 O   0  0  0  0  0
  1  2  1  0  0  0
  3 17  1  0  0  0
  3 18  1  0  0  0
  4 19  1  0  0  0
  5  6  1  0  0  0
  7  6  1  0  0  0
  7 20  1  0  0  0
  8  9  1  0  0  0
 10  9  1  0  0  0
 10 21  1  0  0  0
 11  4  1  0  0  0
 12 14  1  0  0  0
 13 12  1  0  0  0
 13 29  1  0  0  0
 14 15  1  0  0  0
 16 34  1  0  0  0
 16  2  1  0  0  0
 20 24  1  0  0  0
 20 25  1  0  0  0
 21 27  1  0  0  0
 21 28  1  0  0  0
 22 29  1  0  0  0
 22 31  1  0  0  0
 22 32  1  0  0  0
  2 17  2  0  0  0
  3 12  2  0  0  0
  4  5  2  0  0  0
  6  8  2  0  0  0
  9 11  2  0  0  0
 14 16  2  0  0  0
 15 33  2  0  0  0
 18 19  2  0  0  0
 20 23  2  0  0  0
 21 26  2  0  0  0
 22 30  2  0  0  0
M  END
> <rmsd>
0.672569513

$$$$
CHEMBL502234 PubChem-25140162


 49 52  0  0  0  0  0  0  0  0999 V2000
   -1.7061    2.8170  -21.4277 C   0  0  0  0  0
   -2.2402    1.6369  -19.3214 C   0  0  0  0  0
   -3.4799    1.1867  -19.8123 C   0  0  0  0  0
   -4.3184    0.4133  -19.0042 C   0  0  0  0  0
   -3.9242    0.0768  -17.6974 C   0  0  0  0  0
   -6.0420   -1.1344  -17.2309 C   0  0  0  0  0
   -7.5813   -2.8401  -17.0265 C   0  0  0  0  0
   -7.4473   -3.3357  -18.4689 C   0  0  0  0  0
   -6.6715   -5.1817  -19.6531 C   0  0  0  0  0
   -6.6154   -4.3981  -20.9527 C   0  0  0  0  0
   -8.0172   -5.9388  -19.5307 C   0  0  0  0  0
   -8.0470   -6.8428  -18.3011 C   0  0  0  0  0
   -6.7440   -7.6504  -18.1504 C   0  0  0  0  0
   -6.4037   -7.6176  -15.5960 C   0  0  0  0  0
   -6.5266   -8.3630  -14.3128 C   0  0  0  0  0
   -5.4803   -6.8227  -18.4928 C   0  0  0  0  0
   -4.2177   -7.6806  -18.6159 C   0  0  0  0  0
   -3.4931   -7.9844  -17.3004 C   0  0  0  0  0
   -3.8157   -9.3414  -16.6622 C   0  0  0  0  0
   -4.1298  -11.4805  -17.9499 C   0  0  0  0  0
   -3.5910  -12.4909  -18.8764 C   0  0  0  0  0
   -4.4536  -13.3740  -19.5429 C   0  0  0  0  0
   -3.9437  -14.3058  -20.4512 C   0  0  0  0  0
   -2.5667  -14.3437  -20.6843 C   0  0  0  0  0
   -2.2154  -12.5665  -19.1402 C   0  0  0  0  0
   -8.7559   -1.8705  -16.8125 C   0  0  0  0  0
   -8.4604   -0.4738  -17.3709 C   0  0  0  0  0
   -7.0616   -0.0165  -16.9583 C   0  0  0  0  0
   -2.6859    0.5207  -17.2143 C   0  0  0  0  0
   -1.8483    1.2964  -18.0212 C   0  0  0  0  0
   -1.3835    2.4197  -20.0993 O   0  0  0  0  0
   -4.7298   -0.7136  -16.8696 O   0  0  0  0  0
   -6.3708   -2.3076  -16.5174 O   0  0  0  0  0
   -6.4375   -4.3118  -18.5447 O   0  0  0  0  0
   -7.5850   -4.3934  -21.7600 O   0  0  0  0  0
   -5.4739   -3.6662  -21.2629 O   0  0  0  0  0
   -8.3315   -6.0819  -17.1659 O   0  0  0  0  0
   -6.0523   -6.4050  -15.5807 O   0  0  0  0  0
   -5.2586   -8.7695  -13.8843 O   0  0  0  0  0
   -4.4110   -8.8003  -19.4314 O   0  0  0  0  0
   -2.1144   -7.8413  -17.4721 O   0  0  0  0  0
   -5.3488  -11.5079  -17.6249 O   0  0  0  0  0
   -5.6389   -6.1469  -19.7272 O   0  0  0  0  0
   -9.9428   -2.3866  -17.3401 O   0  0  0  0  0
   -8.5740   -0.4582  -18.7658 O   0  0  0  0  0
   -7.0568    0.3291  -15.6034 O   0  0  0  0  0
   -6.6638   -8.2953  -16.8348 N   0  0  0  0  0
   -3.2823  -10.4432  -17.4478 N   0  0  0  0  0
   -1.7368  -13.4831  -20.0272 N   0  0  0  0  0
  1 31  1  0  0  0
  2 31  1  0  0  0
  3  4  1  0  0  0
  5 32  1  0  0  0
  5 29  1  0  0  0
  6 32  1  0  0  0
  6 33  1  0  0  0
  7 33  1  0  0  0
  7  8  1  0  0  0
  7 26  1  0  0  0
  8 34  1  0  0  0
  9 34  1  0  0  0
  9 10  1  0  0  0
  9 11  1  0  0  0
  9 43  1  0  0  0
 10 36  1  0  0  0
 11 12  1  0  0  0
 12 37  1  0  0  0
 12 13  1  0  0  0
 13 47  1  0  0  0
 13 16  1  0  0  0
 15 14  1  0  0  0
 15 39  1  0  0  0
 16 17  1  0  0  0
 16 43  1  0  0  0
 17 40  1  0  0  0
 17 18  1  0  0  0
 18 41  1  0  0  0
 18 19  1  0  0  0
 19 48  1  0  0  0
 20 21  1  0  0  0
 22 23  1  0  0  0
 24 49  1  0  0  0
 25 21  1  0  0  0
 26 44  1  0  0  0
 26 27  1  0  0  0
 27 45  1  0  0  0
 27 28  1  0  0  0
 28 46  1  0  0  0
 28  6  1  0  0  0
 30  2  1  0  0  0
 47 14  1  0  0  0
 48 20  1  0  0  0
  2  3  2  0  0  0
  4  5  2  0  0  0
 10 35  2  0  0  0
 14 38  2  0  0  0
 20 42  2  0  0  0
 21 22  2  0  0  0
 23 24  2  0  0  0
 25 49  2  0  0  0
 29 30  2  0  0  0
M  END
> <rmsd>
0.688372314

$$$$
CHEMBL3144367 PubChem-90663916


 93104  0  0  0  0  0  0  0  0999 V2000
   -3.8697    0.3562  -18.0010 N   0  0  0  0  0
   -3.2680    2.3240  -18.9620 N   0  0  0  0  0
    0.0874    1.0658  -18.2221 N   0  0  0  0  0
   -1.6283   -0.4275  -17.5242 N   0  0  0  0  0
   -0.4144    3.1761  -19.3044 N   0  0  0  0  0
  -11.4639    3.8705  -13.5986 N   0  0  0  0  0
  -11.6552    6.0635  -13.0752 N   0  0  0  0  0
   -9.7086    6.4454  -16.1402 N   0  0  0  0  0
  -10.1705    4.1697  -15.6163 N   0  0  0  0  0
  -10.4863    8.2601  -14.7323 N   0  0  0  0  0
  -18.5916    5.1277  -13.2060 N   0  0  0  0  0
  -20.5561    4.4904  -14.1354 N   0  0  0  0  0
  -21.9091    6.5366  -11.4219 N   0  0  0  0  0
  -19.5302    6.4613  -11.4207 N   0  0  0  0  0
  -23.2220    5.3451  -13.0760 N   0  0  0  0  0
  -22.5236    4.7027   -8.0302 N   0  0  0  0  0
  -24.2971    4.5164   -9.4279 N   0  0  0  0  0
  -24.2983    8.1507   -9.0882 N   0  0  0  0  0
  -22.5678    7.1085   -7.8298 N   0  0  0  0  0
  -25.8456    6.8631  -10.4360 N   0  0  0  0  0
   -2.5358    0.4616  -18.0070 C   0  0  0  0  0
   -2.1780    1.6320  -18.5779 C   0  0  0  0  0
   -4.2989    1.5055  -18.5955 C   0  0  0  0  0
   -0.8336    1.9573  -18.7002 C   0  0  0  0  0
   -0.3002   -0.1149  -17.6383 C   0  0  0  0  0
   -4.6610   -0.7620  -17.4782 C   0  0  0  0  0
   -6.1517   -0.5730  -17.6957 C   0  0  0  0  0
   -9.1208    0.3487  -14.8314 C   0  0  0  0  0
  -10.4113    0.5911  -14.0548 C   0  0  0  0  0
  -11.6093    2.4225  -13.5218 C   0  0  0  0  0
  -10.8287    4.6048  -14.5175 C   0  0  0  0  0
  -10.9490    5.9114  -14.2094 C   0  0  0  0  0
  -11.9545    4.7801  -12.7205 C   0  0  0  0  0
  -10.3784    6.8720  -15.0302 C   0  0  0  0  0
   -9.6037    5.1080  -16.4331 C   0  0  0  0  0
  -12.2709    1.8921  -14.7728 C   0  0  0  0  0
  -14.6780    4.5138  -15.2484 C   0  0  0  0  0
  -15.1669    5.1057  -13.9313 C   0  0  0  0  0
  -17.1662    5.2529  -12.9270 C   0  0  0  0  0
  -19.6023    5.6657  -12.5163 C   0  0  0  0  0
  -20.7743    5.2853  -13.0700 C   0  0  0  0  0
  -19.1945    4.4108  -14.1905 C   0  0  0  0  0
  -21.9705    5.7226  -12.5193 C   0  0  0  0  0
  -20.7044    6.9029  -10.8733 C   0  0  0  0  0
  -16.6045    3.9443  -12.4466 C   0  0  0  0  0
  -18.2464    3.6477   -8.5339 C   0  0  0  0  0
  -19.1728    3.9728   -7.3735 C   0  0  0  0  0
  -21.3728    4.3841   -7.1880 C   0  0  0  0  0
  -23.0198    5.9162   -8.2849 C   0  0  0  0  0
  -24.0741    5.8067   -9.1194 C   0  0  0  0  0
  -23.3214    3.8596   -8.7405 C   0  0  0  0  0
  -24.7432    6.9426   -9.5430 C   0  0  0  0  0
  -23.2222    8.2372   -8.2402 C   0  0  0  0  0
  -21.2400    2.8972   -6.9468 C   0  0  0  0  0
  -19.7662    2.7060   -6.7859 C   0  0  0  0  0
  -15.1687    4.0481  -12.8427 C   0  0  0  0  0
  -11.5960    0.5782  -14.9971 C   0  0  0  0  0
   -6.6380   -1.9462  -18.0656 C   0  0  0  0  0
   -5.3897   -2.7996  -18.0302 C   0  0  0  0  0
   -5.3824   -3.7525  -19.2105 C   0  0  0  0  0
   -6.7411   -0.1700  -16.4927 O   0  0  0  0  0
   -7.2959    2.1682  -17.5881 O   0  0  0  0  0
   -8.7199    1.5056  -15.5042 O   0  0  0  0  0
  -10.3491    1.8184  -13.3682 O   0  0  0  0  0
  -13.6381    1.7054  -14.5496 O   0  0  0  0  0
  -15.2502    0.9916  -16.4756 O   0  0  0  0  0
  -15.4974    3.4522  -15.6494 O   0  0  0  0  0
  -16.4652    5.6333  -14.0810 O   0  0  0  0  0
  -16.7169    3.8590  -11.0576 O   0  0  0  0  0
  -18.5273    2.1096  -11.9650 O   0  0  0  0  0
  -18.9741    3.1510   -9.6177 O   0  0  0  0  0
  -20.1955    4.8454   -7.7923 O   0  0  0  0  0
  -19.4535    2.6448   -5.4280 O   0  0  0  0  0
  -16.9704    1.2944  -10.0398 O   0  0  0  0  0
  -13.3564    2.6318  -17.1987 O   0  0  0  0  0
   -9.0677    0.2787  -17.9541 O   0  0  0  0  0
   -4.2676   -1.9589  -18.0968 O   0  0  0  0  0
   -6.2350   -4.8311  -18.9629 O   0  0  0  0  0
   -7.0409   -6.9953  -20.2143 O   0  0  0  0  0
   -4.6217   -6.1330  -20.8420 O   0  0  0  0  0
   -4.0545   -6.5243  -18.2914 O   0  0  0  0  0
   -2.3554   -7.4724  -20.0629 O   0  0  0  0  0
   -2.4194   -9.9886  -19.2846 O   0  0  0  0  0
   -2.0158   -8.2252  -17.3912 O   0  0  0  0  0
   -0.0937   -8.8123  -19.2646 O   0  0  0  0  0
   -4.8581   -8.6255  -19.6460 O   0  0  0  0  0
   -6.9076   -4.8205  -21.6373 O   0  0  0  0  0
   -7.9313    0.9734  -16.9068 P   0  0  0  0  0
  -14.4406    2.1685  -15.9796 P   0  0  0  0  0
  -17.8136    2.5969  -10.7197 P   0  0  0  0  0
   -6.2173   -5.7398  -20.3950 P   0  0  0  0  0
   -3.9825   -7.1757  -19.6566 P   0  0  0  0  0
   -1.7581   -8.6604  -19.0052 P   0  0  0  0  0
  1 21  1  0  0  0
  6 31  1  0  0  0
 11 40  1  0  0  0
 16 49  1  0  0  0
 21  4  1  0  0  0
 22  2  1  0  0  0
 22 24  1  0  0  0
 23  1  1  0  0  0
 24  5  1  0  0  0
 25  3  1  0  0  0
 26  1  1  0  0  0
 26 27  1  0  0  0
 26 77  1  0  0  0
 27 61  1  0  0  0
 27 58  1  0  0  0
 28 63  1  0  0  0
 29 28  1  0  0  0
 29 64  1  0  0  0
 30 64  1  0  0  0
 30  6  1  0  0  0
 30 36  1  0  0  0
 31  9  1  0  0  0
 32  7  1  0  0  0
 32 34  1  0  0  0
 33  6  1  0  0  0
 34 10  1  0  0  0
 35  8  1  0  0  0
 36 65  1  0  0  0
 36 57  1  0  0  0
 37 67  1  0  0  0
 38 37  1  0  0  0
 38 68  1  0  0  0
 39 68  1  0  0  0
 39 11  1  0  0  0
 39 45  1  0  0  0
 40 14  1  0  0  0
 41 12  1  0  0  0
 41 43  1  0  0  0
 42 11  1  0  0  0
 43 15  1  0  0  0
 44 13  1  0  0  0
 45 69  1  0  0  0
 45 56  1  0  0  0
 46 71  1  0  0  0
 47 46  1  0  0  0
 47 72  1  0  0  0
 48 72  1  0  0  0
 48 16  1  0  0  0
 48 54  1  0  0  0
 49 19  1  0  0  0
 50 17  1  0  0  0
 50 52  1  0  0  0
 51 16  1  0  0  0
 52 20  1  0  0  0
 53 18  1  0  0  0
 54 55  1  0  0  0
 55 73  1  0  0  0
 55 47  1  0  0  0
 56 38  1  0  0  0
 57 29  1  0  0  0
 58 59  1  0  0  0
 59 77  1  0  0  0
 59 60  1  0  0  0
 60 78  1  0  0  0
 88 61  1  0  0  0
 88 63  1  0  0  0
 88 76  1  0  0  0
 89 65  1  0  0  0
 89 67  1  0  0  0
 89 75  1  0  0  0
 90 69  1  0  0  0
 90 71  1  0  0  0
 90 74  1  0  0  0
 91 78  1  0  0  0
 91 80  1  0  0  0
 91 87  1  0  0  0
 92 80  1  0  0  0
 92 82  1  0  0  0
 92 86  1  0  0  0
 93 82  1  0  0  0
 93 84  1  0  0  0
 93 85  1  0  0  0
 21 22  2  0  0  0
 23  2  2  0  0  0
 24  3  2  0  0  0
 25  4  2  0  0  0
 31 32  2  0  0  0
 33  7  2  0  0  0
 34  8  2  0  0  0
 35  9  2  0  0  0
 40 41  2  0  0  0
 42 12  2  0  0  0
 43 13  2  0  0  0
 44 14  2  0  0  0
 49 50  2  0  0  0
 51 17  2  0  0  0
 52 18  2  0  0  0
 53 19  2  0  0  0
 88 62  2  0  0  0
 89 66  2  0  0  0
 90 70  2  0  0  0
 91 79  2  0  0  0
 92 81  2  0  0  0
 93 83  2  0  0  0
M  END
> <rmsd>
0.732469797

$$$$
CHEMBL1160267 PubChem-44301896


 54 59  0  0  0  0  0  0  0  0999 V2000
   -4.1768    1.0193  -17.9292 N   0  0  0  0  0
   -1.2539  -10.8765  -18.9217 N   0  0  0  0  0
   -2.3165  -11.9916  -20.5826 N   0  0  0  0  0
   -0.0635  -14.6651  -19.5462 N   0  0  0  0  0
    0.2171  -12.6737  -18.2720 N   0  0  0  0  0
   -1.6915  -14.8131  -21.3353 N   0  0  0  0  0
   -2.1219    1.7178  -18.5899 N   0  0  0  0  0
   -2.8271    4.4024  -16.2269 N   0  0  0  0  0
   -4.5859    2.8042  -16.3644 N   0  0  0  0  0
   -0.8133    4.1979  -17.5486 N   0  0  0  0  0
   -5.3359    0.1456  -17.7361 C   0  0  0  0  0
   -6.6193    0.9549  -17.6452 C   0  0  0  0  0
   -7.5130    0.3438  -18.6935 C   0  0  0  0  0
   -6.8077   -0.9400  -19.0521 C   0  0  0  0  0
   -7.0356   -1.2371  -20.5312 C   0  0  0  0  0
   -5.9527   -5.0040  -22.2578 C   0  0  0  0  0
   -4.8053   -5.5308  -21.3874 C   0  0  0  0  0
   -2.3227   -7.1199  -19.5656 C   0  0  0  0  0
   -1.3167   -7.6573  -18.5635 C   0  0  0  0  0
   -0.8395   -9.8127  -18.0091 C   0  0  0  0  0
   -0.7641  -12.1145  -19.0141 C   0  0  0  0  0
   -1.3973  -12.7782  -20.0033 C   0  0  0  0  0
   -2.2027  -10.8226  -19.8914 C   0  0  0  0  0
   -1.0510  -14.0903  -20.2897 C   0  0  0  0  0
    0.5657  -13.9679  -18.5462 C   0  0  0  0  0
    0.4573   -9.1996  -18.4867 C   0  0  0  0  0
   -0.0269   -8.0089  -19.2591 C   0  0  0  0  0
   -3.4784   -5.0786  -21.9107 C   0  0  0  0  0
   -6.0908   -5.7434  -23.5555 C   0  0  0  0  0
   -3.8581    2.1464  -17.2871 C   0  0  0  0  0
   -2.6399    2.5685  -17.6858 C   0  0  0  0  0
   -3.0895    0.7665  -18.7122 C   0  0  0  0  0
   -2.0944    3.7244  -17.1539 C   0  0  0  0  0
   -4.0592    3.9492  -15.8338 C   0  0  0  0  0
   -5.4349   -0.7787  -18.7994 O   0  0  0  0  0
   -6.4432   -2.4569  -20.8843 O   0  0  0  0  0
   -7.1544   -5.0572  -21.5461 O   0  0  0  0  0
   -4.8489   -6.9288  -21.2802 O   0  0  0  0  0
   -3.4294   -6.5908  -18.8900 O   0  0  0  0  0
   -1.8305   -8.8112  -17.9326 O   0  0  0  0  0
    0.8748   -6.9393  -19.1985 O   0  0  0  0  0
    1.1993   -8.7992  -17.3697 O   0  0  0  0  0
   -4.7016   -8.9803  -19.4500 O   0  0  0  0  0
   -2.8276   -4.1990  -21.2893 O   0  0  0  0  0
   -2.9527   -5.6283  -23.0725 O   0  0  0  0  0
   -5.5522   -5.2938  -24.5939 O   0  0  0  0  0
   -6.8325   -6.9143  -23.6197 O   0  0  0  0  0
   -8.9619   -3.4298  -20.2737 O   0  0  0  0  0
   -8.8004    0.0788  -18.2108 O   0  0  0  0  0
   -7.1587    0.8165  -16.3660 O   0  0  0  0  0
   -7.7078   -3.4559  -21.4065 P   0  0  0  0  0
   -4.7867   -7.3024  -19.6201 P   0  0  0  0  0
   -8.3207   -2.9182  -22.9277 S   0  0  0  0  0
   -6.2163   -6.7497  -18.8193 S   0  0  0  0  0
  1 30  1  0  0  0
  2 21  1  0  0  0
 11  1  1  0  0  0
 11 12  1  0  0  0
 11 35  1  0  0  0
 12 13  1  0  0  0
 12 50  1  0  0  0
 13 14  1  0  0  0
 13 49  1  0  0  0
 14 35  1  0  0  0
 14 15  1  0  0  0
 15 36  1  0  0  0
 16 37  1  0  0  0
 16 17  1  0  0  0
 16 29  1  0  0  0
 17 38  1  0  0  0
 17 28  1  0  0  0
 18 39  1  0  0  0
 19 18  1  0  0  0
 19 40  1  0  0  0
 20 40  1  0  0  0
 20  2  1  0  0  0
 20 26  1  0  0  0
 21  5  1  0  0  0
 22  3  1  0  0  0
 22 24  1  0  0  0
 23  2  1  0  0  0
 24  6  1  0  0  0
 25  4  1  0  0  0
 26 27  1  0  0  0
 26 42  1  0  0  0
 27 41  1  0  0  0
 27 19  1  0  0  0
 28 45  1  0  0  0
 29 47  1  0  0  0
 30  9  1  0  0  0
 31  7  1  0  0  0
 31 33  1  0  0  0
 32  1  1  0  0  0
 33 10  1  0  0  0
 34  8  1  0  0  0
 51 36  1  0  0  0
 51 37  1  0  0  0
 51 48  1  0  0  0
 52 38  1  0  0  0
 52 39  1  0  0  0
 52 43  1  0  0  0
 21 22  2  0  0  0
 23  3  2  0  0  0
 24  4  2  0  0  0
 25  5  2  0  0  0
 28 44  2  0  0  0
 29 46  2  0  0  0
 30 31  2  0  0  0
 32  7  2  0  0  0
 33  8  2  0  0  0
 34  9  2  0  0  0
 51 53  2  0  0  0
 52 54  2  0  0  0
M  END
> <rmsd>
0.788862944

$$$$
CHEMBL1615613 PubChem-135908308


 52 56  0  0  0  0  0  0  0  0999 V2000
   -3.7639    3.1541  -18.0375 N   0  0  0  0  0
   -1.8559    4.4363  -17.4263 N   0  0  0  0  0
   -0.9730    1.2095  -18.8982 N   0  0  0  0  0
   -3.2300    1.0111  -19.0235 N   0  0  0  0  0
   -8.2933   -3.3236  -26.7255 N   0  0  0  0  0
   -6.7442   -3.8740  -28.4220 N   0  0  0  0  0
   -6.8576   -2.8726  -30.6094 N   0  0  0  0  0
   -6.3221   -4.5852  -18.6355 N   0  0  0  0  0
   -4.0712    5.3337  -17.0499 N   0  0  0  0  0
   -3.2190    4.2912  -17.5097 C   0  0  0  0  0
   -1.0087    3.4573  -17.8663 C   0  0  0  0  0
   -1.5728    2.3026  -18.3910 C   0  0  0  0  0
   -2.0254    0.4298  -19.2797 C   0  0  0  0  0
   -2.9173    2.1859  -18.4688 C   0  0  0  0  0
   -4.5731    0.5134  -19.3273 C   0  0  0  0  0
   -6.1780   -0.7669  -18.4680 C   0  0  0  0  0
   -5.4820   -1.6823  -19.4354 C   0  0  0  0  0
   -4.5429   -0.7563  -20.1713 C   0  0  0  0  0
   -4.0153   -0.9973  -22.3101 C   0  0  0  0  0
   -6.7419   -4.1817  -22.5899 C   0  0  0  0  0
   -8.0515   -3.8886  -23.3056 C   0  0  0  0  0
   -8.6908   -5.1815  -23.7695 C   0  0  0  0  0
   -9.3459   -4.8049  -25.0670 C   0  0  0  0  0
   -8.8089   -3.4188  -25.3598 C   0  0  0  0  0
   -8.9211   -2.4613  -27.5710 C   0  0  0  0  0
   -8.4699   -2.2938  -28.8760 C   0  0  0  0  0
   -7.3617   -3.0271  -29.2874 C   0  0  0  0  0
   -7.1980   -4.0299  -27.1512 C   0  0  0  0  0
   -5.5235   -5.7897  -18.4500 C   0  0  0  0  0
   -6.2763   -7.0098  -18.9682 C   0  0  0  0  0
   -5.4253   -8.2612  -18.8035 C   0  0  0  0  0
   -6.5936   -1.5484  -17.2282 C   0  0  0  0  0
    0.2405    3.6036  -17.7933 O   0  0  0  0  0
   -5.2768    0.2543  -18.1365 O   0  0  0  0  0
   -4.9947   -0.4664  -21.4667 O   0  0  0  0  0
   -6.4073   -2.3022  -20.2840 O   0  0  0  0  0
   -4.5576   -4.1489  -20.6164 O   0  0  0  0  0
   -6.9930   -4.7871  -21.3553 O   0  0  0  0  0
   -7.8072   -3.0915  -24.4310 O   0  0  0  0  0
   -6.5980   -4.8272  -26.3792 O   0  0  0  0  0
  -10.7296   -4.7297  -24.8810 O   0  0  0  0  0
   -4.2647   -8.1654  -19.5840 O   0  0  0  0  0
   -2.7215   -8.1766  -17.4564 O   0  0  0  0  0
   -3.5644  -10.5198  -18.2796 O   0  0  0  0  0
   -1.6722   -9.0838  -19.6693 O   0  0  0  0  0
   -7.3184   -0.7325  -16.3498 O   0  0  0  0  0
   -9.2694   -2.3648  -17.1568 O   0  0  0  0  0
   -9.8979   -0.5597  -15.3696 O   0  0  0  0  0
   -9.3834    0.1248  -17.9892 O   0  0  0  0  0
   -6.0148   -3.9551  -20.2483 P   0  0  0  0  0
   -3.0550   -8.9635  -18.7056 P   0  0  0  0  0
   -8.9695   -0.9367  -16.7337 P   0  0  0  0  0
  2 11  1  0  0  0
  4 14  1  0  0  0
  5 25  1  0  0  0
 10  2  1  0  0  0
 10  9  1  0  0  0
 11 12  1  0  0  0
 12  3  1  0  0  0
 13  4  1  0  0  0
 14  1  1  0  0  0
 15  4  1  0  0  0
 15 34  1  0  0  0
 16 34  1  0  0  0
 16 17  1  0  0  0
 16 32  1  0  0  0
 17 18  1  0  0  0
 17 36  1  0  0  0
 18 35  1  0  0  0
 18 15  1  0  0  0
 19 35  1  0  0  0
 20 38  1  0  0  0
 21 20  1  0  0  0
 21 22  1  0  0  0
 21 39  1  0  0  0
 22 23  1  0  0  0
 23 24  1  0  0  0
 23 41  1  0  0  0
 24 39  1  0  0  0
 24  5  1  0  0  0
 26 27  1  0  0  0
 27  7  1  0  0  0
 28  6  1  0  0  0
 28  5  1  0  0  0
 29  8  1  0  0  0
 29 30  1  0  0  0
 30 31  1  0  0  0
 31 42  1  0  0  0
 32 46  1  0  0  0
 50 36  1  0  0  0
 50 38  1  0  0  0
 50  8  1  0  0  0
 51 42  1  0  0  0
 51 44  1  0  0  0
 51 45  1  0  0  0
 52 46  1  0  0  0
 52 48  1  0  0  0
 52 49  1  0  0  0
 10  1  2  0  0  0
 11 33  2  0  0  0
 13  3  2  0  0  0
 14 12  2  0  0  0
 25 26  2  0  0  0
 27  6  2  0  0  0
 28 40  2  0  0  0
 50 37  2  0  0  0
 51 43  2  0  0  0
 52 47  2  0  0  0
M  END
> <rmsd>
0.773620486

$$$$
CHEMBL3581975 PubChem-122179243


 55 59  0  0  0  0  0  0  0  0999 V2000
   -9.0617   -0.0409  -18.3983 O   0  0  0  0  0
   -6.2914   -0.0884  -19.8993 O   0  0  0  0  0
   -7.6521   -2.3068  -20.9518 O   0  0  0  0  0
   -4.3506   -7.6562  -19.8617 O   0  0  0  0  0
   -2.6255   -9.2117  -19.5278 O   0  0  0  0  0
   -4.5846  -11.1824  -17.1797 O   0  0  0  0  0
   -4.0514   -8.8027  -15.6837 O   0  0  0  0  0
   -1.9530   -7.7492  -17.1127 O   0  0  0  0  0
   -4.1168   -2.9254  -19.1657 O   0  0  0  0  0
   -1.1875    2.2860  -16.9217 O   0  0  0  0  0
   -7.9392   -4.8589  -21.3860 O   0  0  0  0  0
   -7.5590    1.0990  -21.4613 O   0  0  0  0  0
   -8.0367    4.1036  -19.5707 O   0  0  0  0  0
  -10.3129    1.5459  -20.3701 O   0  0  0  0  0
   -6.6595   -0.3666  -16.7282 O   0  0  0  0  0
   -9.4141   -2.5007  -16.0579 O   0  0  0  0  0
   -7.4050   -2.9287  -17.1098 O   0  0  0  0  0
  -10.1881    0.2990  -16.4288 O   0  0  0  0  0
  -12.5304    0.7029  -17.5919 O   0  0  0  0  0
  -12.4491    3.0061  -17.4631 O   0  0  0  0  0
   -8.3533    0.9346  -19.1098 C   0  0  0  0  0
   -7.6033    0.2941  -20.2935 C   0  0  0  0  0
   -5.8191   -1.4115  -19.8414 C   0  0  0  0  0
   -6.5477   -2.5016  -20.3744 C   0  0  0  0  0
   -6.0287   -3.8074  -20.2686 C   0  0  0  0  0
   -6.7022   -4.9524  -20.7593 C   0  0  0  0  0
   -6.1262   -6.2168  -20.6149 C   0  0  0  0  0
   -4.8889   -6.3722  -19.9886 C   0  0  0  0  0
   -3.1130   -7.9252  -19.1987 C   0  0  0  0  0
   -3.5553  -10.1881  -19.1070 C   0  0  0  0  0
   -3.6500  -10.2240  -17.5777 C   0  0  0  0  0
   -4.0932   -8.8511  -17.0779 C   0  0  0  0  0
   -3.2286   -7.7411  -17.6791 C   0  0  0  0  0
   -3.1225  -11.5407  -19.6420 C   0  0  0  0  0
   -4.2175   -5.2428  -19.5048 C   0  0  0  0  0
   -4.7776   -3.9711  -19.6392 C   0  0  0  0  0
   -4.5663   -1.6742  -19.2320 C   0  0  0  0  0
   -3.7036   -0.6125  -18.6409 C   0  0  0  0  0
   -2.4464   -0.9681  -18.1230 C   0  0  0  0  0
   -1.6084   -0.0056  -17.5514 C   0  0  0  0  0
   -2.0185    1.3283  -17.4879 C   0  0  0  0  0
   -3.2658    1.6982  -17.9953 C   0  0  0  0  0
   -4.1008    0.7334  -18.5666 C   0  0  0  0  0
   -7.2654    2.4279  -21.0980 C   0  0  0  0  0
   -8.4759    3.0814  -20.4105 C   0  0  0  0  0
   -9.2737    2.0627  -19.5919 C   0  0  0  0  0
   -6.8836    3.2186  -22.3333 C   0  0  0  0  0
   -8.9334    0.3190  -17.0490 C   0  0  0  0  0
   -7.9687   -0.6154  -16.3127 C   0  0  0  0  0
   -8.3145   -2.0646  -16.4942 C   0  0  0  0  0
   -7.6673   -4.3147  -17.2523 C   0  0  0  0  0
  -10.6330    1.6252  -16.4530 C   0  0  0  0  0
  -11.9283    1.7391  -17.1973 C   0  0  0  0  0
  -13.6656    3.1799  -18.1721 C   0  0  0  0  0
  -10.8120    2.1271  -15.0328 C   0  0  0  0  0
 21  1  1  0  0  0
 21 22  1  0  0  0
 22  2  1  0  0  0
 22 12  1  0  0  0
 23  2  1  0  0  0
 23 24  1  0  0  0
 24 25  1  0  0  0
 26 27  1  0  0  0
 26 11  1  0  0  0
 28  4  1  0  0  0
 28 35  1  0  0  0
 29  4  1  0  0  0
 29  5  1  0  0  0
 30  5  1  0  0  0
 30 31  1  0  0  0
 30 34  1  0  0  0
 31  6  1  0  0  0
 31 32  1  0  0  0
 32  7  1  0  0  0
 32 33  1  0  0  0
 33  8  1  0  0  0
 33 29  1  0  0  0
 36  9  1  0  0  0
 36 25  1  0  0  0
 37  9  1  0  0  0
 37 38  1  0  0  0
 39 40  1  0  0  0
 41 42  1  0  0  0
 41 10  1  0  0  0
 43 38  1  0  0  0
 44 12  1  0  0  0
 44 45  1  0  0  0
 44 47  1  0  0  0
 45 13  1  0  0  0
 45 46  1  0  0  0
 46 14  1  0  0  0
 46 21  1  0  0  0
 48  1  1  0  0  0
 48 49  1  0  0  0
 48 18  1  0  0  0
 49 15  1  0  0  0
 49 50  1  0  0  0
 50 17  1  0  0  0
 51 17  1  0  0  0
 52 18  1  0  0  0
 52 53  1  0  0  0
 52 55  1  0  0  0
 53 20  1  0  0  0
 54 20  1  0  0  0
 24  3  2  0  0  0
 25 26  2  0  0  0
 27 28  2  0  0  0
 35 36  2  0  0  0
 37 23  2  0  0  0
 38 39  2  0  0  0
 40 41  2  0  0  0
 42 43  2  0  0  0
 50 16  2  0  0  0
 53 19  2  0  0  0
M  END
> <rmsd>
0.711335301

$$$$
CHEMBL4598391 PubChem-155522677


 94101  0  0  0  0  0  0  0  0999 V2000
   16.5235   19.5943  -22.3339 O   0  0  0  0  0
   16.3165   20.5667  -24.5754 O   0  0  0  0  0
   12.6823   18.1239  -19.7113 O   0  0  0  0  0
   10.8194   17.0731  -20.8972 O   0  0  0  0  0
   10.4668   19.4421  -19.8399 O   0  0  0  0  0
    8.6909   17.4684  -23.9345 O   0  0  0  0  0
    7.6612   13.2595  -23.6724 O   0  0  0  0  0
    2.1073    8.1755  -24.2952 O   0  0  0  0  0
   -0.5916    1.7638  -21.2802 O   0  0  0  0  0
   -4.1123   -0.3892  -19.8604 O   0  0  0  0  0
   -4.4279   -8.5424  -19.5858 O   0  0  0  0  0
   -2.6272   -8.2401  -17.9584 O   0  0  0  0  0
   -2.1931   -7.5168  -20.4242 O   0  0  0  0  0
   -9.4413   -4.6366  -20.2200 O   0  0  0  0  0
   -7.5171   -5.5860  -21.3981 O   0  0  0  0  0
   -8.2062   -6.6288  -19.1183 O   0  0  0  0  0
   -6.9221    0.7381  -19.1579 O   0  0  0  0  0
   -8.9221   -0.3148  -18.2179 O   0  0  0  0  0
   -7.0082    0.3070  -16.5923 O   0  0  0  0  0
   -1.7783   -1.8817  -17.4265 O   0  0  0  0  0
   -1.5270   -3.8567  -16.0122 O   0  0  0  0  0
   -3.4384   -2.2310  -15.4335 O   0  0  0  0  0
   10.9868   23.0077  -27.1219 O   0  0  0  0  0
   12.9776   23.2423  -25.7186 O   0  0  0  0  0
   12.8269   21.1994  -27.3275 O   0  0  0  0  0
    7.0186   22.2180  -24.5137 O   0  0  0  0  0
    7.0048   21.0895  -22.3396 O   0  0  0  0  0
    6.6278   19.6509  -24.4789 O   0  0  0  0  0
   16.1692   17.9790  -24.3443 O   0  0  0  0  0
   15.8268   19.4760  -23.6610 S   0  0  0  0  0
   11.5120   18.3811  -20.6226 S   0  0  0  0  0
   -3.2990   -7.6434  -19.1647 S   0  0  0  0  0
   -8.0766   -5.2379  -20.0475 S   0  0  0  0  0
   -7.4230   -0.2342  -18.1273 S   0  0  0  0  0
   -2.5256   -2.9344  -16.6572 S   0  0  0  0  0
   12.0082   22.2590  -26.3146 S   0  0  0  0  0
    7.4167   20.9626  -23.7852 S   0  0  0  0  0
   14.0936   19.6296  -23.4248 C   0  0  0  0  0
   13.3345   20.3941  -24.2995 C   0  0  0  0  0
   11.9504   20.5197  -24.1365 C   0  0  0  0  0
   11.2877   19.8232  -23.0777 C   0  0  0  0  0
   12.0947   19.0977  -22.1392 C   0  0  0  0  0
   13.4799   19.0146  -22.3431 C   0  0  0  0  0
    9.8628   19.8851  -23.0324 C   0  0  0  0  0
    8.5197   17.7877  -22.7234 C   0  0  0  0  0
    7.7408   16.9089  -21.8323 C   0  0  0  0  0
    7.3258   15.6465  -22.2723 C   0  0  0  0  0
    6.5894   14.7924  -21.4374 C   0  0  0  0  0
    6.6237   12.8492  -23.0952 C   0  0  0  0  0
    5.9147   11.6776  -23.6375 C   0  0  0  0  0
    6.2182   11.2216  -24.9276 C   0  0  0  0  0
    5.5659   10.1094  -25.4570 C   0  0  0  0  0
    4.6031    9.4453  -24.6971 C   0  0  0  0  0
    4.2808    9.8902  -23.4070 C   0  0  0  0  0
    4.9442   11.0042  -22.8789 C   0  0  0  0  0
    2.4552    8.1710  -23.0828 C   0  0  0  0  0
    1.3563    5.9337  -22.5916 C   0  0  0  0  0
    0.7525    5.1081  -21.6317 C   0  0  0  0  0
    0.2429    3.8504  -21.9932 C   0  0  0  0  0
    0.3509    3.4177  -23.3243 C   0  0  0  0  0
    0.9498    4.2360  -24.2827 C   0  0  0  0  0
    1.4500    5.4855  -23.9195 C   0  0  0  0  0
   -0.3861    2.9730  -20.9939 C   0  0  0  0  0
   -1.5458    2.7678  -18.7391 C   0  0  0  0  0
   -1.5505    3.1687  -17.3928 C   0  0  0  0  0
   -2.3043    2.4597  -16.4530 C   0  0  0  0  0
   -3.0740    1.3628  -16.8486 C   0  0  0  0  0
   -3.1085    0.9728  -18.1935 C   0  0  0  0  0
   -3.9429   -0.1627  -18.6281 C   0  0  0  0  0
   -5.3897   -2.1184  -18.0340 C   0  0  0  0  0
   -4.8765   -3.4394  -18.1960 C   0  0  0  0  0
   -3.5799   -3.8599  -17.7444 C   0  0  0  0  0
   -3.1258   -5.1454  -18.0617 C   0  0  0  0  0
   -3.9153   -6.0444  -18.7728 C   0  0  0  0  0
   -5.2043   -5.6813  -19.1429 C   0  0  0  0  0
   -5.7028   -4.4034  -18.8583 C   0  0  0  0  0
   -7.0173   -4.0757  -19.2449 C   0  0  0  0  0
   -7.5141   -2.8031  -18.9907 C   0  0  0  0  0
   -6.7229   -1.8298  -18.3936 C   0  0  0  0  0
   -2.3427    1.6799  -19.1276 C   0  0  0  0  0
   -0.7181    4.3135  -16.9299 C   0  0  0  0  0
    6.2467   15.2329  -20.1436 C   0  0  0  0  0
    6.6615   16.4921  -19.7011 C   0  0  0  0  0
    7.4084   17.3216  -20.5372 C   0  0  0  0  0
    5.4487   14.3812  -19.2206 C   0  0  0  0  0
    9.1634   20.7461  -23.9017 C   0  0  0  0  0
    9.8505   21.4596  -24.8797 C   0  0  0  0  0
   11.2247   21.3422  -25.0223 C   0  0  0  0  0
    9.1051   18.9910  -22.2109 N   0  0  0  0  0
    6.1478   13.5078  -21.9106 N   0  0  0  0  0
    3.3463    9.1741  -22.5896 N   0  0  0  0  0
    1.9393    7.1808  -22.1839 N   0  0  0  0  0
   -0.7389    3.4743  -19.6954 N   0  0  0  0  0
   -4.5394   -1.0306  -17.6552 N   0  0  0  0  0
 30 38  1  0  0  0
 30 29  1  0  0  0
 31 42  1  0  0  0
 31  5  1  0  0  0
 32 74  1  0  0  0
 32 13  1  0  0  0
 33 77  1  0  0  0
 33 16  1  0  0  0
 34 79  1  0  0  0
 34 19  1  0  0  0
 35 72  1  0  0  0
 35 22  1  0  0  0
 36 88  1  0  0  0
 36 25  1  0  0  0
 37 86  1  0  0  0
 37 28  1  0  0  0
 39 40  1  0  0  0
 41 42  1  0  0  0
 41 44  1  0  0  0
 43 38  1  0  0  0
 44 89  1  0  0  0
 45 46  1  0  0  0
 47 48  1  0  0  0
 48 90  1  0  0  0
 49 50  1  0  0  0
 51 52  1  0  0  0
 53 54  1  0  0  0
 54 91  1  0  0  0
 55 50  1  0  0  0
 56 92  1  0  0  0
 58 59  1  0  0  0
 59 63  1  0  0  0
 60 61  1  0  0  0
 62 57  1  0  0  0
 63 93  1  0  0  0
 65 66  1  0  0  0
 67 68  1  0  0  0
 68 69  1  0  0  0
 69 94  1  0  0  0
 70 71  1  0  0  0
 72 73  1  0  0  0
 74 75  1  0  0  0
 76 77  1  0  0  0
 76 71  1  0  0  0
 78 79  1  0  0  0
 80 64  1  0  0  0
 81 65  1  0  0  0
 82 83  1  0  0  0
 84 46  1  0  0  0
 85 82  1  0  0  0
 86 87  1  0  0  0
 88 40  1  0  0  0
 89 45  1  0  0  0
 90 49  1  0  0  0
 91 56  1  0  0  0
 92 57  1  0  0  0
 93 64  1  0  0  0
 94 70  1  0  0  0
 30  1  2  0  0  0
 30  2  2  0  0  0
 31  3  2  0  0  0
 31  4  2  0  0  0
 32 11  2  0  0  0
 32 12  2  0  0  0
 33 14  2  0  0  0
 33 15  2  0  0  0
 34 17  2  0  0  0
 34 18  2  0  0  0
 35 20  2  0  0  0
 35 21  2  0  0  0
 36 23  2  0  0  0
 36 24  2  0  0  0
 37 26  2  0  0  0
 37 27  2  0  0  0
 38 39  2  0  0  0
 40 41  2  0  0  0
 42 43  2  0  0  0
 44 86  2  0  0  0
 45  6  2  0  0  0
 46 47  2  0  0  0
 48 82  2  0  0  0
 49  7  2  0  0  0
 50 51  2  0  0  0
 52 53  2  0  0  0
 54 55  2  0  0  0
 56  8  2  0  0  0
 57 58  2  0  0  0
 59 60  2  0  0  0
 61 62  2  0  0  0
 63  9  2  0  0  0
 64 65  2  0  0  0
 66 67  2  0  0  0
 68 80  2  0  0  0
 69 10  2  0  0  0
 71 72  2  0  0  0
 73 74  2  0  0  0
 75 76  2  0  0  0
 77 78  2  0  0  0
 79 70  2  0  0  0
 83 84  2  0  0  0
 87 88  2  0  0  0
M  END
> <rmsd>
0.64162308

$$$$
CHEMBL3301675 CHEMBL3301676 LN01286134 PubChem-16158207 PubChem-16158208


101106  0  0  0  0  0  0  0  0999 V2000
   -4.3096   -8.6905  -19.6750 N   0  0  0  0  0
   -3.6510   -7.0542  -17.0759 N   0  0  0  0  0
   -4.9304   -3.7211  -16.6355 N   0  0  0  0  0
   -2.9493   -2.2554  -19.5426 N   0  0  0  0  0
   -3.4016   -1.9289  -22.7402 N   0  0  0  0  0
   -1.4515   -3.8089  -24.7008 N   0  0  0  0  0
   -2.2829   -7.0584  -25.2246 N   0  0  0  0  0
   -4.1971  -10.0572  -25.4137 N   0  0  0  0  0
   -6.0092   -7.6214  -23.3343 N   0  0  0  0  0
   -9.2806   -7.5249  -23.0365 N   0  0  0  0  0
   -9.9163   -4.4111  -22.4460 N   0  0  0  0  0
  -11.4792   -4.1777  -25.0699 N   0  0  0  0  0
   -9.6977   -3.6879  -27.5799 N   0  0  0  0  0
   -9.7931    0.0327  -27.0766 N   0  0  0  0  0
   -2.4165   -5.0947  -28.1594 N   0  0  0  0  0
   -2.9973   -8.1730  -19.3033 C   0  0  0  0  0
   -2.8732   -7.9909  -17.8279 C   0  0  0  0  0
   -4.6141   -6.0761  -17.5833 C   0  0  0  0  0
   -4.9517   -5.1414  -16.4605 C   0  0  0  0  0
   -4.7872   -3.0203  -17.9071 C   0  0  0  0  0
   -3.3463   -2.9810  -18.3667 C   0  0  0  0  0
   -3.8327   -1.3799  -20.3041 C   0  0  0  0  0
   -4.2367   -2.0402  -21.5826 C   0  0  0  0  0
   -3.6308   -2.6902  -23.9543 C   0  0  0  0  0
   -2.3759   -2.7131  -24.7822 C   0  0  0  0  0
   -1.6181   -5.0158  -23.8920 C   0  0  0  0  0
   -2.6729   -5.9097  -24.4644 C   0  0  0  0  0
   -3.2335   -7.7854  -26.0596 C   0  0  0  0  0
   -3.0822   -9.2579  -25.8419 C   0  0  0  0  0
   -5.4754   -9.5155  -24.9772 C   0  0  0  0  0
   -6.4068  -10.7140  -24.8509 C   0  0  0  0  0
   -5.5302  -11.9601  -24.9333 C   0  0  0  0  0
   -4.1795  -11.5045  -25.4575 C   0  0  0  0  0
   -5.3318   -8.8480  -23.6405 C   0  0  0  0  0
   -7.0337   -6.9623  -24.1434 C   0  0  0  0  0
   -8.3372   -7.7127  -24.1030 C   0  0  0  0  0
   -9.0731   -6.7447  -21.8193 C   0  0  0  0  0
   -8.8343   -5.2827  -22.1081 C   0  0  0  0  0
  -11.2837   -4.8888  -22.6192 C   0  0  0  0  0
  -11.9551   -4.1041  -23.7246 C   0  0  0  0  0
  -10.3154   -4.9546  -25.4487 C   0  0  0  0  0
  -10.1202   -4.8904  -26.9271 C   0  0  0  0  0
   -9.3895   -2.4433  -26.8739 C   0  0  0  0  0
   -9.8189   -1.2614  -27.6846 C   0  0  0  0  0
   -9.9055    1.2560  -27.8538 C   0  0  0  0  0
   -8.6301    1.5081  -28.6013 C   0  0  0  0  0
  -10.2276    2.4272  -26.9347 C   0  0  0  0  0
  -10.6654    3.6238  -27.7149 C   0  0  0  0  0
  -11.8910    3.6256  -28.3962 C   0  0  0  0  0
  -12.2892    4.7548  -29.1196 C   0  0  0  0  0
  -11.4644    5.8828  -29.1629 C   0  0  0  0  0
  -10.2449    5.8842  -28.4802 C   0  0  0  0  0
   -9.8470    4.7571  -27.7574 C   0  0  0  0  0
   -7.8932   -2.3306  -26.6535 C   0  0  0  0  0
   -4.8140   -2.1222  -24.7238 C   0  0  0  0  0
  -12.0647   -4.8222  -21.2973 C   0  0  0  0  0
  -13.3115   -5.6837  -21.3878 C   0  0  0  0  0
   -8.0115   -7.3817  -20.9269 C   0  0  0  0  0
   -5.8760   -6.7880  -18.0545 C   0  0  0  0  0
   -6.5653   -6.6931  -25.5670 C   0  0  0  0  0
   -2.9876   -7.4693  -27.5265 C   0  0  0  0  0
   -3.4028   -6.0808  -27.8589 C   0  0  0  0  0
   -1.8780   -4.6804  -22.4266 C   0  0  0  0  0
   -2.6707   -6.9114  -20.0719 C   0  0  0  0  0
   -3.1389   -0.0421  -20.5679 C   0  0  0  0  0
   -3.1218    0.7927  -19.3288 C   0  0  0  0  0
   -4.2766    1.4752  -18.9304 C   0  0  0  0  0
   -4.2713    2.2345  -17.7584 C   0  0  0  0  0
   -3.1068    2.3125  -16.9857 C   0  0  0  0  0
   -1.9499    1.6427  -17.3911 C   0  0  0  0  0
   -1.9565    0.8831  -18.5619 C   0  0  0  0  0
   -5.3382   -1.6205  -17.7261 C   0  0  0  0  0
   -6.8496   -1.6447  -17.8701 C   0  0  0  0  0
   -7.5043   -0.3725  -17.4122 C   0  0  0  0  0
   -2.0292   -8.6974  -17.2185 O   0  0  0  0  0
   -5.2381   -5.6063  -15.3256 O   0  0  0  0  0
   -2.4686   -3.6145  -17.7268 O   0  0  0  0  0
   -5.3056   -2.7087  -21.6223 O   0  0  0  0  0
   -2.0944   -1.7306  -25.5175 O   0  0  0  0  0
   -3.8937   -5.6410  -24.3080 O   0  0  0  0  0
   -1.9546   -9.8002  -26.0337 O   0  0  0  0  0
   -4.6229   -9.3877  -22.7498 O   0  0  0  0  0
   -8.6234   -8.5222  -25.0283 O   0  0  0  0  0
   -7.6687   -4.8108  -22.0444 O   0  0  0  0  0
  -12.9670   -3.3917  -23.4791 O   0  0  0  0  0
  -10.3503   -5.9190  -27.6136 O   0  0  0  0  0
  -10.1549   -1.3913  -28.8923 O   0  0  0  0  0
   -7.5463    1.6609  -27.9844 O   0  0  0  0  0
   -8.6474    1.5772  -29.9853 O   0  0  0  0  0
  -11.8535    7.0059  -29.8834 O   0  0  0  0  0
  -11.2843   -5.2798  -20.2335 O   0  0  0  0  0
   -4.6217   -5.7808  -27.8903 O   0  0  0  0  0
   -3.0951    3.0554  -15.8166 O   0  0  0  0  0
   -6.8418    0.5159  -16.8151 O   0  0  0  0  0
   -8.8610   -0.1833  -17.6357 O   0  0  0  0  0
   -7.3769   -3.3035  -25.2100 S   0  0  0  0  0
   -5.3788   -3.3538  -25.9310 S   0  0  0  0  0
   -8.4697   -7.1449  -19.1848 S   0  0  0  0  0
   -7.0000   -5.6346  -18.9004 S   0  0  0  0  0
   -0.6204   -5.4281  -21.3593 S   0  0  0  0  0
   -1.5497   -7.3361  -21.4289 S   0  0  0  0  0
 16  1  1  0  0  0
 16 17  1  0  0  0
 17  2  1  0  0  0
 18  2  1  0  0  0
 18 19  1  0  0  0
 18 59  1  0  0  0
 19  3  1  0  0  0
 20  3  1  0  0  0
 20 21  1  0  0  0
 20 72  1  0  0  0
 21  4  1  0  0  0
 22  4  1  0  0  0
 22 23  1  0  0  0
 22 65  1  0  0  0
 23  5  1  0  0  0
 24  5  1  0  0  0
 24 25  1  0  0  0
 24 55  1  0  0  0
 25  6  1  0  0  0
 26  6  1  0  0  0
 26 27  1  0  0  0
 26 63  1  0  0  0
 27  7  1  0  0  0
 28  7  1  0  0  0
 28 29  1  0  0  0
 28 61  1  0  0  0
 29  8  1  0  0  0
 30  8  1  0  0  0
 30 31  1  0  0  0
 30 34  1  0  0  0
 31 32  1  0  0  0
 32 33  1  0  0  0
 33  8  1  0  0  0
 34  9  1  0  0  0
 35  9  1  0  0  0
 35 36  1  0  0  0
 35 60  1  0  0  0
 36 10  1  0  0  0
 37 10  1  0  0  0
 37 38  1  0  0  0
 37 58  1  0  0  0
 38 11  1  0  0  0
 39 11  1  0  0  0
 39 40  1  0  0  0
 39 56  1  0  0  0
 40 12  1  0  0  0
 41 12  1  0  0  0
 41 42  1  0  0  0
 42 13  1  0  0  0
 43 13  1  0  0  0
 43 44  1  0  0  0
 43 54  1  0  0  0
 44 14  1  0  0  0
 45 14  1  0  0  0
 45 46  1  0  0  0
 45 47  1  0  0  0
 46 89  1  0  0  0
 47 48  1  0  0  0
 49 50  1  0  0  0
 51 52  1  0  0  0
 51 90  1  0  0  0
 53 48  1  0  0  0
 54 96  1  0  0  0
 55 97  1  0  0  0
 56 57  1  0  0  0
 56 91  1  0  0  0
 58 98  1  0  0  0
 59 99  1  0  0  0
 61 62  1  0  0  0
 62 15  1  0  0  0
 63100  1  0  0  0
 64101  1  0  0  0
 64 16  1  0  0  0
 65 66  1  0  0  0
 67 68  1  0  0  0
 69 70  1  0  0  0
 69 93  1  0  0  0
 71 66  1  0  0  0
 72 73  1  0  0  0
 73 74  1  0  0  0
 74 95  1  0  0  0
 96 97  1  0  0  0
 98 99  1  0  0  0
100101  1  0  0  0
 17 75  2  0  0  0
 19 76  2  0  0  0
 21 77  2  0  0  0
 23 78  2  0  0  0
 25 79  2  0  0  0
 27 80  2  0  0  0
 29 81  2  0  0  0
 34 82  2  0  0  0
 36 83  2  0  0  0
 38 84  2  0  0  0
 40 85  2  0  0  0
 42 86  2  0  0  0
 44 87  2  0  0  0
 46 88  2  0  0  0
 48 49  2  0  0  0
 50 51  2  0  0  0
 52 53  2  0  0  0
 62 92  2  0  0  0
 66 67  2  0  0  0
 68 69  2  0  0  0
 70 71  2  0  0  0
 74 94  2  0  0  0
M  END
> <rmsd>
0.697865784

$$$$
CHEMBL4209935 PubChem-129909500


 38 40  0  0  0  0  0  0  0  0999 V2000
   -2.9052  -10.1478  -19.4090 C   0  0  0  0  0
   -3.1497   -8.7795  -18.8852 C   0  0  0  0  0
   -4.5971   -6.7374  -19.0145 C   0  0  0  0  0
   -5.7064   -6.1456  -19.6421 C   0  0  0  0  0
   -6.0835   -4.8398  -19.2877 C   0  0  0  0  0
   -5.3725   -4.1238  -18.3157 C   0  0  0  0  0
   -4.2753   -4.7194  -17.6928 C   0  0  0  0  0
   -3.8900   -6.0151  -18.0395 C   0  0  0  0  0
   -5.7469   -2.7554  -17.9349 C   0  0  0  0  0
   -6.7546   -2.1017  -18.5033 C   0  0  0  0  0
   -5.7770    0.6257  -18.3169 C   0  0  0  0  0
   -4.6348    0.3174  -17.3577 C   0  0  0  0  0
   -3.4048    1.1448  -17.5917 C   0  0  0  0  0
   -3.3182    2.0954  -18.6218 C   0  0  0  0  0
   -2.1465    2.8359  -18.8013 C   0  0  0  0  0
   -1.0459    2.6363  -17.9552 C   0  0  0  0  0
   -1.1357    1.6910  -16.9288 C   0  0  0  0  0
   -2.3066    0.9493  -16.7489 C   0  0  0  0  0
    0.4774    4.3396  -19.1259 C   0  0  0  0  0
    1.7842    5.0203  -19.1184 C   0  0  0  0  0
    2.1061    5.9530  -20.1160 C   0  0  0  0  0
    3.3477    6.5952  -20.1092 C   0  0  0  0  0
    4.2768    6.3093  -19.1054 C   0  0  0  0  0
    3.9639    5.3823  -18.1076 C   0  0  0  0  0
    2.7220    4.7410  -18.1139 C   0  0  0  0  0
   -7.5627   -6.4800  -21.2916 C   0  0  0  0  0
   -8.1270   -7.3627  -22.3454 C   0  0  0  0  0
   -2.3807   -8.3143  -18.0020 O   0  0  0  0  0
   -4.2312   -8.0421  -19.3883 O   0  0  0  0  0
   -7.5135   -0.4508  -16.5509 O   0  0  0  0  0
   -8.3278    0.0038  -18.8123 O   0  0  0  0  0
   -0.3587    4.6005  -20.0336 O   0  0  0  0  0
   -6.4003   -6.8824  -20.6176 O   0  0  0  0  0
   -8.1472   -5.3977  -21.0195 O   0  0  0  0  0
   -7.1492   -0.4676  -18.0095 S   0  0  0  0  0
    0.1733    3.3756  -18.1061 N   0  0  0  0  0
    4.8634    5.1067  -17.1334 F   0  0  0  0  0
    3.6501    7.4944  -21.0760 F   0  0  0  0  0
  1  2  1  0  0  0
  2 29  1  0  0  0
  3 29  1  0  0  0
  4  5  1  0  0  0
  4 33  1  0  0  0
  6  7  1  0  0  0
  6  9  1  0  0  0
  8  3  1  0  0  0
 11 12  1  0  0  0
 12 13  1  0  0  0
 14 15  1  0  0  0
 16 17  1  0  0  0
 16 36  1  0  0  0
 18 13  1  0  0  0
 19 20  1  0  0  0
 21 22  1  0  0  0
 22 38  1  0  0  0
 23 24  1  0  0  0
 24 37  1  0  0  0
 25 20  1  0  0  0
 26 33  1  0  0  0
 27 26  1  0  0  0
 35 10  1  0  0  0
 35 11  1  0  0  0
 36 19  1  0  0  0
  2 28  2  0  0  0
  3  4  2  0  0  0
  5  6  2  0  0  0
  7  8  2  0  0  0
  9 10  2  0  0  0
 13 14  2  0  0  0
 15 16  2  0  0  0
 17 18  2  0  0  0
 19 32  2  0  0  0
 20 21  2  0  0  0
 22 23  2  0  0  0
 24 25  2  0  0  0
 26 34  2  0  0  0
 35 30  2  0  0  0
 35 31  2  0  0  0
M  END
> <rmsd>
0.792805314

$$$$
CHEMBL4079552 PubChem-137652193


 84 90  0  0  0  0  0  0  0  0999 V2000
   -0.7882    4.6780  -17.0491 O   0  0  0  0  0
   -1.5488    5.0187  -19.5183 O   0  0  0  0  0
    0.8174    4.5593  -19.0862 O   0  0  0  0  0
   -0.8693    2.5739  -18.8517 O   0  0  0  0  0
   -5.1490    2.7041  -16.5220 O   0  0  0  0  0
   -8.5831    8.1493  -13.2668 O   0  0  0  0  0
  -10.9228    9.1876  -12.7960 O   0  0  0  0  0
   -9.9435    9.8779   -8.9731 O   0  0  0  0  0
   -5.5966    7.9417   -9.4663 O   0  0  0  0  0
   -5.9850    8.6302   -6.9309 O   0  0  0  0  0
   -4.3976    9.9276   -8.2820 O   0  0  0  0  0
   -3.6776    7.5657   -7.5152 O   0  0  0  0  0
  -14.6834   12.6594   -5.6446 O   0  0  0  0  0
  -15.3694   14.2250   -3.6570 O   0  0  0  0  0
  -13.2139   14.6407   -4.7502 O   0  0  0  0  0
  -13.4184   12.5707   -3.1888 O   0  0  0  0  0
  -15.7204   11.1968   -7.7502 O   0  0  0  0  0
  -17.9674   10.3829   -8.8228 O   0  0  0  0  0
  -16.1323    8.7669   -8.6563 O   0  0  0  0  0
  -15.9625   10.6323  -10.4656 O   0  0  0  0  0
  -12.7356   10.4633  -11.2471 O   0  0  0  0  0
  -14.2626   12.1868  -12.5117 O   0  0  0  0  0
  -12.6584   13.0571  -10.8827 O   0  0  0  0  0
  -11.7503   12.2028  -13.1690 O   0  0  0  0  0
   -6.4869    0.4859  -16.5930 O   0  0  0  0  0
   -3.4978   -1.3710  -18.5049 O   0  0  0  0  0
   -4.5512   -7.7064  -19.0644 O   0  0  0  0  0
   -3.5641  -10.1378  -19.1511 O   0  0  0  0  0
   -2.3526   -8.4791  -17.8273 O   0  0  0  0  0
   -2.2173   -8.3104  -20.4302 O   0  0  0  0  0
   -6.8136   -6.2217  -19.6463 O   0  0  0  0  0
   -8.6210   -4.3072  -19.6117 O   0  0  0  0  0
   -7.5458   -4.8550  -21.7506 O   0  0  0  0  0
   -9.3113   -6.5067  -20.8069 O   0  0  0  0  0
   -6.7244   -2.2640  -17.0661 O   0  0  0  0  0
   -8.6610   -0.8929  -15.8879 O   0  0  0  0  0
   -8.6766   -1.0363  -18.3307 O   0  0  0  0  0
   -9.3415   -3.1389  -16.9619 O   0  0  0  0  0
   -0.5879    4.2475  -18.6619 S   0  0  0  0  0
   -4.9404    8.5597   -8.0176 S   0  0  0  0  0
  -14.1733   13.5801   -4.2990 S   0  0  0  0  0
  -16.4780   10.2042   -8.9193 S   0  0  0  0  0
  -12.8847   12.0169  -11.9424 S   0  0  0  0  0
   -3.1501   -8.6909  -19.0788 S   0  0  0  0  0
   -8.0760   -5.4175  -20.4667 S   0  0  0  0  0
   -8.3637   -1.7763  -17.0606 S   0  0  0  0  0
   -2.0387    1.9430  -18.4115 C   0  0  0  0  0
   -3.0255    2.6369  -17.7047 C   0  0  0  0  0
   -4.1961    1.9943  -17.2661 C   0  0  0  0  0
   -4.8829    3.9978  -15.9853 C   0  0  0  0  0
   -6.0047    4.4567  -15.1099 C   0  0  0  0  0
   -6.6982    3.5615  -14.2850 C   0  0  0  0  0
   -7.7182    4.0282  -13.4522 C   0  0  0  0  0
   -8.0271    5.3954  -13.4183 C   0  0  0  0  0
   -7.3022    6.2988  -14.2072 C   0  0  0  0  0
   -7.5741    7.7754  -14.2042 C   0  0  0  0  0
   -8.3375    8.3992  -11.9132 C   0  0  0  0  0
   -9.3261    9.0235  -11.1098 C   0  0  0  0  0
  -10.5956    9.3982  -11.5961 C   0  0  0  0  0
  -11.5092   10.0278  -10.7420 C   0  0  0  0  0
  -11.1555   10.2335   -9.3934 C   0  0  0  0  0
   -9.0365    9.3065   -9.7555 C   0  0  0  0  0
   -7.7915    8.9770   -9.2198 C   0  0  0  0  0
   -6.8261    8.3343  -10.0002 C   0  0  0  0  0
   -7.1038    8.0497  -11.3391 C   0  0  0  0  0
  -12.0828   10.8469   -8.4168 C   0  0  0  0  0
  -13.4690   10.7287   -8.5520 C   0  0  0  0  0
  -14.3336   11.3188   -7.6218 C   0  0  0  0  0
  -13.8044   12.0427   -6.5409 C   0  0  0  0  0
  -12.4175   12.1324   -6.3836 C   0  0  0  0  0
  -11.5650   11.5333   -7.3112 C   0  0  0  0  0
   -6.2965    5.8222  -15.0499 C   0  0  0  0  0
   -4.3941    0.6250  -17.5757 C   0  0  0  0  0
   -5.5482   -0.0944  -17.2001 C   0  0  0  0  0
   -5.6364   -1.4733  -17.4815 C   0  0  0  0  0
   -4.5563   -2.0897  -18.1471 C   0  0  0  0  0
   -3.3776   -0.0760  -18.2581 C   0  0  0  0  0
   -2.2176    0.5845  -18.6688 C   0  0  0  0  0
   -4.5459   -3.5382  -18.4387 C   0  0  0  0  0
   -5.6824   -4.1880  -18.9238 C   0  0  0  0  0
   -5.6821   -5.5732  -19.1463 C   0  0  0  0  0
   -4.5252   -6.3217  -18.8718 C   0  0  0  0  0
   -3.3714   -5.6630  -18.4221 C   0  0  0  0  0
   -3.3813   -4.2800  -18.2186 C   0  0  0  0  0
 39  1  1  0  0  0
 39  4  1  0  0  0
 40  9  1  0  0  0
 40 12  1  0  0  0
 41 13  1  0  0  0
 41 16  1  0  0  0
 42 17  1  0  0  0
 42 20  1  0  0  0
 43 21  1  0  0  0
 43 24  1  0  0  0
 44 27  1  0  0  0
 44 30  1  0  0  0
 45 31  1  0  0  0
 45 34  1  0  0  0
 46 35  1  0  0  0
 46 38  1  0  0  0
 47  4  1  0  0  0
 48 49  1  0  0  0
 49  5  1  0  0  0
 50  5  1  0  0  0
 50 51  1  0  0  0
 52 53  1  0  0  0
 54 55  1  0  0  0
 56 55  1  0  0  0
 56  6  1  0  0  0
 57  6  1  0  0  0
 58 59  1  0  0  0
 59 60  1  0  0  0
 60 21  1  0  0  0
 61  8  1  0  0  0
 61 66  1  0  0  0
 62  8  1  0  0  0
 62 58  1  0  0  0
 63 64  1  0  0  0
 64  9  1  0  0  0
 65 57  1  0  0  0
 67 68  1  0  0  0
 68 17  1  0  0  0
 69 70  1  0  0  0
 69 13  1  0  0  0
 71 66  1  0  0  0
 72 51  1  0  0  0
 73 74  1  0  0  0
 74 75  1  0  0  0
 75 35  1  0  0  0
 76 26  1  0  0  0
 76 79  1  0  0  0
 77 26  1  0  0  0
 77 73  1  0  0  0
 78 47  1  0  0  0
 80 81  1  0  0  0
 81 31  1  0  0  0
 82 83  1  0  0  0
 82 27  1  0  0  0
 84 79  1  0  0  0
 39  2  2  0  0  0
 39  3  2  0  0  0
 40 10  2  0  0  0
 40 11  2  0  0  0
 41 14  2  0  0  0
 41 15  2  0  0  0
 42 18  2  0  0  0
 42 19  2  0  0  0
 43 22  2  0  0  0
 43 23  2  0  0  0
 44 28  2  0  0  0
 44 29  2  0  0  0
 45 32  2  0  0  0
 45 33  2  0  0  0
 46 36  2  0  0  0
 46 37  2  0  0  0
 47 48  2  0  0  0
 49 73  2  0  0  0
 51 52  2  0  0  0
 53 54  2  0  0  0
 55 72  2  0  0  0
 57 58  2  0  0  0
 59  7  2  0  0  0
 60 61  2  0  0  0
 62 63  2  0  0  0
 64 65  2  0  0  0
 66 67  2  0  0  0
 68 69  2  0  0  0
 70 71  2  0  0  0
 74 25  2  0  0  0
 75 76  2  0  0  0
 77 78  2  0  0  0
 79 80  2  0  0  0
 81 82  2  0  0  0
 83 84  2  0  0  0
M  CHG  8   1  -1  12  -1  16  -1  20  -1  24  -1  30  -1  34  -1  38  -1
M  END
> <rmsd>
0.727693617

$$$$
CHEMBL1159467 PubChem-46905123


 80 89  0  0  0  0  0  0  0  0999 V2000
   -2.7055   -2.9623  -13.7850 C   0  0  0  0  0
   -4.6050   -4.0988  -14.2687 C   0  0  0  0  0
   -4.3382   -4.1333  -15.7940 C   0  0  0  0  0
   -2.8409   -4.0235  -16.0911 C   0  0  0  0  0
   -2.2292   -2.8921  -15.2481 C   0  0  0  0  0
   -2.1143   -1.0740  -16.9227 C   0  0  0  0  0
   -2.6046    0.2281  -17.3890 C   0  0  0  0  0
   -1.6381    1.1988  -17.7126 C   0  0  0  0  0
   -2.0078    2.5145  -18.0432 C   0  0  0  0  0
   -3.3626    2.8702  -18.0322 C   0  0  0  0  0
   -4.3134    1.8965  -17.7339 C   0  0  0  0  0
   -3.9689    0.5994  -17.4520 C   0  0  0  0  0
   -5.2280   -0.2032  -17.2433 C   0  0  0  0  0
   -5.2966   -1.3816  -18.2007 C   0  0  0  0  0
   -5.8184   -1.2517  -19.4214 C   0  0  0  0  0
   -6.6138   -0.0713  -19.7451 C   0  0  0  0  0
   -7.3417    0.5979  -18.6174 C   0  0  0  0  0
   -6.3693    0.8723  -17.4387 C   0  0  0  0  0
   -4.8804   -2.7046  -17.7592 C   0  0  0  0  0
   -1.1165   -5.6877  -15.2100 C   0  0  0  0  0
   -0.8230   -7.1174  -14.9514 C   0  0  0  0  0
   -1.7444   -8.1694  -15.2381 C   0  0  0  0  0
   -3.0637   -7.9333  -15.8720 C   0  0  0  0  0
   -3.1970   -8.1682  -17.2565 C   0  0  0  0  0
   -4.4397   -8.0324  -17.8891 C   0  0  0  0  0
   -5.5795   -7.6954  -17.1309 C   0  0  0  0  0
   -5.4444   -7.4461  -15.7706 C   0  0  0  0  0
   -4.2084   -7.5438  -15.1266 C   0  0  0  0  0
   -4.1538   -7.2439  -13.6831 C   0  0  0  0  0
   -5.5784   -5.2016  -13.8415 C   0  0  0  0  0
   -7.2097   -7.7979  -18.9923 C   0  0  0  0  0
   -7.4488   -9.1144  -19.4583 C   0  0  0  0  0
   -7.7499   -9.2983  -20.8099 C   0  0  0  0  0
   -7.8540   -8.2142  -21.6835 C   0  0  0  0  0
   -7.6438   -6.9114  -21.2144 C   0  0  0  0  0
   -7.3243   -6.7052  -19.8722 C   0  0  0  0  0
   -7.3843  -10.3124  -18.5873 C   0  0  0  0  0
   -1.3788   -9.4936  -14.9648 C   0  0  0  0  0
   -0.1258   -9.7929  -14.4106 C   0  0  0  0  0
    0.7797   -8.7646  -14.1468 C   0  0  0  0  0
    0.4286   -7.4504  -14.3985 C   0  0  0  0  0
   -1.3633   -1.7460  -12.1196 C   0  0  0  0  0
   -0.1701   -1.6949  -11.2673 C   0  0  0  0  0
    0.7548   -2.7423  -11.2927 C   0  0  0  0  0
    1.8889   -2.7000  -10.4841 C   0  0  0  0  0
    2.1207   -1.6002   -9.6508 C   0  0  0  0  0
    1.2021   -0.5502   -9.6281 C   0  0  0  0  0
    0.0583   -0.5948  -10.4281 C   0  0  0  0  0
   -3.4169   -4.1461  -13.5134 O   0  0  0  0  0
   -2.6739   -1.6472  -15.7786 O   0  0  0  0  0
   -1.1004   -1.5930  -17.4678 O   0  0  0  0  0
   -6.7860    0.2763  -20.9382 O   0  0  0  0  0
   -5.6736    2.0969  -17.6850 O   0  0  0  0  0
   -7.0933    1.0001  -16.2539 O   0  0  0  0  0
   -7.8922    1.8008  -19.0570 O   0  0  0  0  0
   -8.3867   -0.2478  -18.1983 O   0  0  0  0  0
   -4.3578   -3.4980  -18.5765 O   0  0  0  0  0
   -5.0149   -3.0417  -16.4043 O   0  0  0  0  0
   -3.7471    4.1682  -18.3389 O   0  0  0  0  0
   -1.0312    3.4569  -18.3579 O   0  0  0  0  0
   -2.2510   -5.3229  -15.9378 O   0  0  0  0  0
   -0.3181   -4.8124  -14.7841 O   0  0  0  0  0
   -3.4411   -7.9597  -12.9319 O   0  0  0  0  0
   -4.9344   -6.2378  -13.1030 O   0  0  0  0  0
   -6.8638   -7.5599  -17.6681 O   0  0  0  0  0
   -7.1086   -5.4108  -19.4017 O   0  0  0  0  0
   -7.7456   -5.8280  -22.0845 O   0  0  0  0  0
   -8.1544   -8.4382  -23.0273 O   0  0  0  0  0
   -7.2501  -10.2049  -17.3395 O   0  0  0  0  0
   -7.4861  -11.5824  -19.1448 O   0  0  0  0  0
   -4.5244   -8.2252  -19.2659 O   0  0  0  0  0
   -2.0895   -8.5562  -18.0170 O   0  0  0  0  0
    2.0411   -9.0495  -13.6568 O   0  0  0  0  0
    0.2149  -11.1292  -14.1209 O   0  0  0  0  0
   -2.2624  -10.5369  -15.2244 O   0  0  0  0  0
   -1.5866   -2.8689  -12.9217 O   0  0  0  0  0
   -2.1618   -0.7695  -12.1509 O   0  0  0  0  0
    1.4249    0.5540   -8.8173 O   0  0  0  0  0
    3.2512   -1.5495   -8.8446 O   0  0  0  0  0
    2.7904   -3.7493  -10.5242 O   0  0  0  0  0
  1 49  1  0  0  0
  1 76  1  0  0  0
  2 49  1  0  0  0
  2  3  1  0  0  0
  2 30  1  0  0  0
  3  4  1  0  0  0
  3 58  1  0  0  0
  4  5  1  0  0  0
  4 61  1  0  0  0
  5 50  1  0  0  0
  5  1  1  0  0  0
  6 50  1  0  0  0
  6  7  1  0  0  0
  8  9  1  0  0  0
  9 60  1  0  0  0
 10 11  1  0  0  0
 10 59  1  0  0  0
 11 53  1  0  0  0
 12  7  1  0  0  0
 13 12  1  0  0  0
 13 14  1  0  0  0
 14 19  1  0  0  0
 15 16  1  0  0  0
 17 16  1  0  0  0
 17 18  1  0  0  0
 17 55  1  0  0  0
 17 56  1  0  0  0
 18 53  1  0  0  0
 18 54  1  0  0  0
 18 13  1  0  0  0
 19 58  1  0  0  0
 20 61  1  0  0  0
 20 21  1  0  0  0
 22 23  1  0  0  0
 22 38  1  0  0  0
 24 25  1  0  0  0
 24 72  1  0  0  0
 25 71  1  0  0  0
 26 27  1  0  0  0
 26 65  1  0  0  0
 28 29  1  0  0  0
 28 23  1  0  0  0
 29 64  1  0  0  0
 30 64  1  0  0  0
 31 65  1  0  0  0
 32 33  1  0  0  0
 32 37  1  0  0  0
 34 35  1  0  0  0
 34 68  1  0  0  0
 35 67  1  0  0  0
 36 66  1  0  0  0
 36 31  1  0  0  0
 37 70  1  0  0  0
 38 75  1  0  0  0
 39 40  1  0  0  0
 39 74  1  0  0  0
 40 73  1  0  0  0
 41 21  1  0  0  0
 42 76  1  0  0  0
 42 43  1  0  0  0
 44 45  1  0  0  0
 45 80  1  0  0  0
 46 47  1  0  0  0
 46 79  1  0  0  0
 47 78  1  0  0  0
 48 43  1  0  0  0
  6 51  2  0  0  0
  7  8  2  0  0  0
  9 10  2  0  0  0
 11 12  2  0  0  0
 14 15  2  0  0  0
 16 52  2  0  0  0
 19 57  2  0  0  0
 20 62  2  0  0  0
 21 22  2  0  0  0
 23 24  2  0  0  0
 25 26  2  0  0  0
 27 28  2  0  0  0
 29 63  2  0  0  0
 31 32  2  0  0  0
 33 34  2  0  0  0
 35 36  2  0  0  0
 37 69  2  0  0  0
 38 39  2  0  0  0
 40 41  2  0  0  0
 42 77  2  0  0  0
 43 44  2  0  0  0
 45 46  2  0  0  0
 47 48  2  0  0  0
M  END
> <rmsd>
0.695262194

$$$$
CHEMBL2220948 PubChem-11851153 PubChem-11851154


 83 87  0  0  0  0  0  0  0  0999 V2000
  -11.6754   -2.1155  -16.7349 O   0  0  0  0  0
  -13.1166   -4.7806  -16.3057 O   0  0  0  0  0
  -11.6078   -4.0198  -14.2874 O   0  0  0  0  0
  -11.7105   -6.3967  -14.8290 O   0  0  0  0  0
  -13.7683   -5.3294  -13.6786 O   0  0  0  0  0
  -15.7715   -4.4844  -15.9134 O   0  0  0  0  0
  -17.5753   -4.8681  -14.0956 O   0  0  0  0  0
  -15.9141   -3.0964  -13.6956 O   0  0  0  0  0
  -17.7816   -2.6655  -15.4552 O   0  0  0  0  0
  -16.7782   -3.1953  -18.2446 O   0  0  0  0  0
  -18.7523   -4.4290  -19.4077 O   0  0  0  0  0
  -17.0437   -5.8002  -18.3202 O   0  0  0  0  0
  -16.4520   -4.6438  -20.5767 O   0  0  0  0  0
  -13.6530   -1.6009  -17.8107 O   0  0  0  0  0
   -8.8121   -0.6561  -18.3789 O   0  0  0  0  0
   -6.7336    0.1169  -18.9736 O   0  0  0  0  0
   -5.5185    2.5255  -18.8848 O   0  0  0  0  0
   -3.1975   -0.7374  -18.6404 O   0  0  0  0  0
   -3.6849   -5.6856  -18.4565 O   0  0  0  0  0
   -2.9701   -7.9907  -17.4547 O   0  0  0  0  0
   -4.0272   -8.0088  -19.6580 O   0  0  0  0  0
   -5.5231   -7.5782  -17.5606 O   0  0  0  0  0
   -6.1698   -6.2389  -19.9185 O   0  0  0  0  0
   -8.7819   -6.4686  -19.7933 O   0  0  0  0  0
   -7.5565   -8.0554  -21.2000 O   0  0  0  0  0
   -7.8339   -5.6311  -22.0702 O   0  0  0  0  0
    0.7840    1.8672  -18.0572 O   0  0  0  0  0
    1.4112    0.1032  -16.2262 O   0  0  0  0  0
    3.2099    0.9790  -17.6328 O   0  0  0  0  0
    1.5736   -0.7270  -18.6832 O   0  0  0  0  0
   -3.4800    4.0794  -18.5300 O   0  0  0  0  0
   -1.9766    5.9325  -19.6185 O   0  0  0  0  0
   -1.9343    5.7192  -17.1749 O   0  0  0  0  0
   -4.0364    6.7679  -18.2835 O   0  0  0  0  0
  -10.1859   -0.0649  -15.1628 O   0  0  0  0  0
  -11.3355    2.1254  -14.3022 O   0  0  0  0  0
  -12.6969    0.5915  -15.6475 O   0  0  0  0  0
  -12.1134   -0.0889  -13.2162 O   0  0  0  0  0
   -9.2997    2.1362  -17.8218 O   0  0  0  0  0
  -11.1468    3.6765  -16.8065 O   0  0  0  0  0
   -9.6031    4.6469  -18.4353 O   0  0  0  0  0
   -8.7123    4.1772  -16.0436 O   0  0  0  0  0
   -7.1919    0.2827  -15.5724 O   0  0  0  0  0
   -5.6369    1.0368  -13.6322 O   0  0  0  0  0
   -5.7718    2.5199  -15.5716 O   0  0  0  0  0
   -4.4429    0.2801  -15.7951 O   0  0  0  0  0
  -12.8333   -2.6387  -17.3114 C   0  0  0  0  0
  -13.5899   -3.4670  -16.2656 C   0  0  0  0  0
  -15.1063   -3.4172  -16.5263 C   0  0  0  0  0
  -15.4033   -3.3538  -18.0306 C   0  0  0  0  0
  -14.6387   -2.1683  -18.6596 C   0  0  0  0  0
  -14.0600   -2.5483  -20.0078 C   0  0  0  0  0
  -10.8419   -1.7585  -17.8007 C   0  0  0  0  0
   -9.6234   -1.0035  -17.2884 C   0  0  0  0  0
   -7.5368   -0.3098  -17.8809 C   0  0  0  0  0
   -5.3479    0.2308  -18.8689 C   0  0  0  0  0
   -4.7737    1.5083  -18.7924 C   0  0  0  0  0
   -3.3855    1.6379  -18.6058 C   0  0  0  0  0
   -2.7361    2.8918  -18.4933 C   0  0  0  0  0
   -1.3450    2.9302  -18.3205 C   0  0  0  0  0
   -0.5948    1.7580  -18.2257 C   0  0  0  0  0
   -1.2393    0.5137  -18.3135 C   0  0  0  0  0
   -2.6198    0.4524  -18.5192 C   0  0  0  0  0
   -4.5042   -0.9036  -18.8307 C   0  0  0  0  0
   -4.9965   -2.2830  -19.0365 C   0  0  0  0  0
   -6.2190   -2.5475  -19.6690 C   0  0  0  0  0
   -6.6118   -3.8582  -19.9258 C   0  0  0  0  0
   -5.7899   -4.9384  -19.5752 C   0  0  0  0  0
   -4.5641   -4.6843  -18.9079 C   0  0  0  0  0
   -4.1786   -3.3604  -18.6697 C   0  0  0  0  0
   -7.5904    0.8080  -16.8061 C   0  0  0  0  0
   -9.0092    1.3900  -16.6770 C   0  0  0  0  0
  -10.0474    0.2628  -16.5164 C   0  0  0  0  0
  -12.5075   -5.1246  -14.7634 S   0  0  0  0  0
  -16.7548   -3.7850  -14.7406 S   0  0  0  0  0
  -17.2833   -4.5492  -19.1188 S   0  0  0  0  0
   -4.0327   -7.3548  -18.3035 S   0  0  0  0  0
   -7.6228   -6.6306  -20.7352 S   0  0  0  0  0
    1.7781    0.5472  -17.6108 S   0  0  0  0  0
   -2.7995    5.6387  -18.3989 S   0  0  0  0  0
  -11.6029    0.6804  -14.6179 S   0  0  0  0  0
   -9.7232    3.6815  -17.2900 S   0  0  0  0  0
   -5.7631    1.0801  -15.1268 S   0  0  0  0  0
 47  1  1  0  0  0
 47 48  1  0  0  0
 47 14  1  0  0  0
 48  2  1  0  0  0
 48 49  1  0  0  0
 49  6  1  0  0  0
 49 50  1  0  0  0
 50 10  1  0  0  0
 50 51  1  0  0  0
 51 14  1  0  0  0
 51 52  1  0  0  0
 53  1  1  0  0  0
 54 53  1  0  0  0
 54 15  1  0  0  0
 55 15  1  0  0  0
 55 16  1  0  0  0
 55 71  1  0  0  0
 56 16  1  0  0  0
 56 57  1  0  0  0
 57 58  1  0  0  0
 59 60  1  0  0  0
 59 31  1  0  0  0
 61 62  1  0  0  0
 61 27  1  0  0  0
 63 18  1  0  0  0
 63 58  1  0  0  0
 64 18  1  0  0  0
 64 65  1  0  0  0
 66 67  1  0  0  0
 68 69  1  0  0  0
 68 23  1  0  0  0
 69 19  1  0  0  0
 70 65  1  0  0  0
 71 72  1  0  0  0
 71 43  1  0  0  0
 72 73  1  0  0  0
 72 39  1  0  0  0
 73 35  1  0  0  0
 73 54  1  0  0  0
 74  2  1  0  0  0
 74  5  1  0  0  0
 75  6  1  0  0  0
 75  9  1  0  0  0
 76 10  1  0  0  0
 76 13  1  0  0  0
 77 19  1  0  0  0
 77 22  1  0  0  0
 78 23  1  0  0  0
 78 26  1  0  0  0
 79 27  1  0  0  0
 79 30  1  0  0  0
 80 31  1  0  0  0
 80 34  1  0  0  0
 81 35  1  0  0  0
 81 38  1  0  0  0
 82 39  1  0  0  0
 82 42  1  0  0  0
 83 43  1  0  0  0
 83 46  1  0  0  0
 57 17  2  0  0  0
 58 59  2  0  0  0
 60 61  2  0  0  0
 62 63  2  0  0  0
 64 56  2  0  0  0
 65 66  2  0  0  0
 67 68  2  0  0  0
 69 70  2  0  0  0
 74  3  2  0  0  0
 74  4  2  0  0  0
 75  7  2  0  0  0
 75  8  2  0  0  0
 76 11  2  0  0  0
 76 12  2  0  0  0
 77 20  2  0  0  0
 77 21  2  0  0  0
 78 24  2  0  0  0
 78 25  2  0  0  0
 79 28  2  0  0  0
 79 29  2  0  0  0
 80 32  2  0  0  0
 80 33  2  0  0  0
 81 36  2  0  0  0
 81 37  2  0  0  0
 82 40  2  0  0  0
 82 41  2  0  0  0
 83 44  2  0  0  0
 83 45  2  0  0  0
M  END
> <rmsd>
0.63294071

$$$$
CHEMBL2103750 MolPort-006-130-918 PubChem-16129696


 82 91  0  0  0  0  0  0  0  0999 V2000
   -2.0268   -0.9756  -15.9219 C   0  0  0  0  0
   -3.1959   -0.2485  -16.1344 C   0  0  0  0  0
   -2.8655    0.7193  -17.0624 C   0  0  0  0  0
   -1.5375    0.5314  -17.3616 C   0  0  0  0  0
   -0.8745    1.3329  -18.2922 C   0  0  0  0  0
   -1.6093    2.3494  -18.9297 C   0  0  0  0  0
   -2.9699    2.5451  -18.6287 C   0  0  0  0  0
   -3.6164    1.7320  -17.6795 C   0  0  0  0  0
   -5.0784    1.8945  -17.4430 C   0  0  0  0  0
   -6.8253    0.1805  -17.6791 C   0  0  0  0  0
   -7.2458   -1.0649  -18.3750 C   0  0  0  0  0
   -6.8479   -2.2833  -17.5470 C   0  0  0  0  0
   -6.1676   -3.3831  -18.3722 C   0  0  0  0  0
   -4.7362   -3.0782  -18.6860 C   0  0  0  0  0
   -2.5475   -3.5109  -18.9472 C   0  0  0  0  0
   -1.3352   -4.3439  -18.8875 C   0  0  0  0  0
   -1.1579   -4.7344  -16.3903 C   0  0  0  0  0
   -1.0489   -5.9051  -15.4610 C   0  0  0  0  0
   -0.7077   -8.0391  -14.8401 C   0  0  0  0  0
   -0.2767   -9.4400  -15.0324 C   0  0  0  0  0
   -0.3679  -10.1135  -16.2777 C   0  0  0  0  0
   -1.0942   -9.5776  -17.4524 C   0  0  0  0  0
   -2.7059   -8.5052  -18.6118 C   0  0  0  0  0
   -3.9332   -7.6944  -18.7996 C   0  0  0  0  0
   -4.4633   -7.4363  -16.2888 C   0  0  0  0  0
   -4.9905   -6.2660  -15.4951 C   0  0  0  0  0
   -7.4340   -6.9427  -15.3684 C   0  0  0  0  0
   -8.2512   -7.5877  -14.5384 C   0  0  0  0  0
   -7.9883   -7.6962  -13.0744 C   0  0  0  0  0
   -7.7776   -6.8447  -16.7969 C   0  0  0  0  0
   -7.8628   -5.9191  -18.8461 C   0  0  0  0  0
   -7.6104   -4.8873  -19.8791 C   0  0  0  0  0
   -8.6330   -7.0575  -19.1065 C   0  0  0  0  0
   -5.0285   -8.7772  -15.7892 C   0  0  0  0  0
   -4.3269   -9.1930  -14.5095 C   0  0  0  0  0
   -1.9925   -9.0236  -19.6953 C   0  0  0  0  0
    0.2113  -11.3836  -16.3876 C   0  0  0  0  0
    0.8492  -11.9784  -15.3028 C   0  0  0  0  0
    0.8830  -11.3028  -14.0718 C   0  0  0  0  0
    1.5541  -11.8641  -12.8819 C   0  0  0  0  0
    2.9422  -13.1664  -11.6765 C   0  0  0  0  0
    3.9524  -14.2171  -11.4829 C   0  0  0  0  0
    5.5076  -15.4120   -9.8443 C   0  0  0  0  0
    6.3681  -15.1620   -8.8701 C   0  0  0  0  0
    5.4821  -16.7556  -10.4498 C   0  0  0  0  0
    2.5157  -12.3354  -10.6369 C   0  0  0  0  0
   -1.1541   -7.5506  -13.6087 C   0  0  0  0  0
   -0.0422   -3.7231  -16.1368 C   0  0  0  0  0
   -1.8834   -2.1369  -15.0324 C   0  0  0  0  0
   -2.5990   -2.3262  -19.6857 C   0  0  0  0  0
   -4.5082   -0.4381  -15.4533 C   0  0  0  0  0
   -1.0024   -0.4968  -16.6725 N   0  0  0  0  0
   -3.7269   -3.9270  -18.4031 N   0  0  0  0  0
   -1.0687   -5.1899  -17.7711 N   0  0  0  0  0
   -0.6355   -7.1266  -15.8467 N   0  0  0  0  0
   -2.2062   -8.8136  -17.3812 N   0  0  0  0  0
   -4.7331   -7.2206  -17.7073 N   0  0  0  0  0
   -6.2721   -6.2795  -14.8569 N   0  0  0  0  0
   -7.3907   -5.8135  -17.5724 N   0  0  0  0  0
   -6.9021   -3.6724  -19.6032 N   0  0  0  0  0
    2.4111  -12.9083  -12.9069 N   0  0  0  0  0
    4.5595  -14.3957  -10.1943 N   0  0  0  0  0
    4.2671  -17.2964  -10.9551 N   0  0  0  0  0
    0.3202  -10.0680  -13.9805 N   0  0  0  0  0
   -5.7763    0.9306  -18.2142 O   0  0  0  0  0
   -7.3754    0.5174  -16.5929 O   0  0  0  0  0
   -0.5280   -4.3398  -19.8555 O   0  0  0  0  0
   -4.3033   -7.4172  -19.9714 O   0  0  0  0  0
   -4.2595   -5.2580  -15.3457 O   0  0  0  0  0
   -8.0639   -5.0649  -21.0432 O   0  0  0  0  0
   -4.8763   -9.7819  -16.7463 O   0  0  0  0  0
    4.3180  -14.9162  -12.4691 O   0  0  0  0  0
    6.5302  -17.4507  -10.5019 O   0  0  0  0  0
    1.4238  -13.2333  -15.4599 O   0  0  0  0  0
   -2.9040   -2.7146  -14.5656 O   0  0  0  0  0
   -8.6263   -1.0639  -18.5648 O   0  0  0  0  0
   -8.7264   -7.9278  -17.6687 S   0  0  0  0  0
   -0.7105   -9.9024  -19.0512 S   0  0  0  0  0
    1.4415  -11.2378  -11.3271 S   0  0  0  0  0
   -1.4968   -5.9187  -13.8454 S   0  0  0  0  0
   -0.2584   -2.7576  -14.6016 S   0  0  0  0  0
   -4.1963   -1.8003  -19.6316 S   0  0  0  0  0
  2  3  1  0  0  0
  4 52  1  0  0  0
  4  5  1  0  0  0
  6  7  1  0  0  0
  8  3  1  0  0  0
  9  8  1  0  0  0
  9 65  1  0  0  0
 10 65  1  0  0  0
 11 10  1  0  0  0
 11 12  1  0  0  0
 11 76  1  0  0  0
 12 13  1  0  0  0
 13 14  1  0  0  0
 13 60  1  0  0  0
 14 82  1  0  0  0
 15 53  1  0  0  0
 15 16  1  0  0  0
 16 54  1  0  0  0
 17 54  1  0  0  0
 17 18  1  0  0  0
 17 48  1  0  0  0
 18 80  1  0  0  0
 19 55  1  0  0  0
 19 20  1  0  0  0
 20 64  1  0  0  0
 21 22  1  0  0  0
 21 37  1  0  0  0
 22 78  1  0  0  0
 23 56  1  0  0  0
 23 24  1  0  0  0
 24 57  1  0  0  0
 25 57  1  0  0  0
 25 26  1  0  0  0
 25 34  1  0  0  0
 26 58  1  0  0  0
 27 30  1  0  0  0
 29 28  1  0  0  0
 30 77  1  0  0  0
 31 59  1  0  0  0
 31 32  1  0  0  0
 32 60  1  0  0  0
 33 77  1  0  0  0
 34 71  1  0  0  0
 34 35  1  0  0  0
 36 78  1  0  0  0
 38 39  1  0  0  0
 38 74  1  0  0  0
 39 40  1  0  0  0
 40 79  1  0  0  0
 41 61  1  0  0  0
 41 42  1  0  0  0
 42 62  1  0  0  0
 43 45  1  0  0  0
 45 63  1  0  0  0
 46 79  1  0  0  0
 47 80  1  0  0  0
 48 81  1  0  0  0
 49 81  1  0  0  0
 49  1  1  0  0  0
 50 82  1  0  0  0
 51  2  1  0  0  0
 52  1  1  0  0  0
 58 27  1  0  0  0
 62 43  1  0  0  0
  1  2  2  0  0  0
  3  4  2  0  0  0
  5  6  2  0  0  0
  7  8  2  0  0  0
 10 66  2  0  0  0
 14 53  2  0  0  0
 15 50  2  0  0  0
 16 67  2  0  0  0
 18 55  2  0  0  0
 19 47  2  0  0  0
 20 21  2  0  0  0
 22 56  2  0  0  0
 23 36  2  0  0  0
 24 68  2  0  0  0
 26 69  2  0  0  0
 27 28  2  0  0  0
 30 59  2  0  0  0
 31 33  2  0  0  0
 32 70  2  0  0  0
 37 38  2  0  0  0
 39 64  2  0  0  0
 40 61  2  0  0  0
 41 46  2  0  0  0
 42 72  2  0  0  0
 43 44  2  0  0  0
 45 73  2  0  0  0
 49 75  2  0  0  0
M  END
> <rmsd>
0.733343005

$$$$
CHEMBL3604557


 57 62  0  0  0  0  0  0  0  0999 V2000
   -7.0680   -0.6627  -18.7842 C   0  0  0  0  0
   -6.3312    0.2604  -17.8434 C   0  0  0  0  0
   -5.1662   -0.5752  -17.3544 C   0  0  0  0  0
   -3.1361    0.6269  -16.5023 C   0  0  0  0  0
   -2.0665    1.2675  -17.0290 C   0  0  0  0  0
   -1.1152    1.8356  -16.1904 C   0  0  0  0  0
   -2.4016    1.0645  -14.3310 C   0  0  0  0  0
   -1.2325    1.7798  -19.3502 C   0  0  0  0  0
   -3.2960    0.5437  -18.6389 C   0  0  0  0  0
   -6.3989   -1.9975  -18.5744 C   0  0  0  0  0
   -6.3454   -2.7454  -19.8944 C   0  0  0  0  0
   -1.5456  -10.1191  -19.6534 C   0  0  0  0  0
   -2.7108  -11.0583  -19.8987 C   0  0  0  0  0
   -2.8005  -12.0768  -18.7977 C   0  0  0  0  0
   -3.3938  -13.2752  -19.4876 C   0  0  0  0  0
   -3.0835  -13.0221  -20.9509 C   0  0  0  0  0
   -0.9002  -14.2903  -21.0712 C   0  0  0  0  0
   -0.3895  -15.2942  -21.8199 C   0  0  0  0  0
    0.9037  -15.7480  -21.5863 C   0  0  0  0  0
    1.0754  -14.1300  -19.8405 C   0  0  0  0  0
   -1.2173  -16.7323  -23.7125 C   0  0  0  0  0
   -2.3998  -14.8978  -22.4753 C   0  0  0  0  0
   -8.4320   -0.7520  -18.4846 O   0  0  0  0  0
   -0.0035    2.5010  -16.6902 O   0  0  0  0  0
   -5.0981   -1.7694  -18.0959 O   0  0  0  0  0
   -5.7721   -4.0052  -19.7111 O   0  0  0  0  0
   -8.0249   -5.1479  -18.9825 O   0  0  0  0  0
   -6.3383   -6.6878  -20.2875 O   0  0  0  0  0
   -5.9472   -6.6706  -17.6686 O   0  0  0  0  0
   -3.8557   -6.0560  -19.1195 O   0  0  0  0  0
   -3.6261   -5.0762  -21.5301 O   0  0  0  0  0
   -1.5212   -6.2964  -20.6090 O   0  0  0  0  0
    0.4262   -7.7232  -19.6198 O   0  0  0  0  0
   -1.7463   -7.6432  -18.1821 O   0  0  0  0  0
   -1.5941   -9.0739  -20.5758 O   0  0  0  0  0
   -3.6127  -11.6080  -17.7634 O   0  0  0  0  0
    1.4649  -16.7767  -22.3314 O   0  0  0  0  0
   -2.5320  -11.7364  -21.1151 O   0  0  0  0  0
   -4.7810  -13.3226  -19.3231 O   0  0  0  0  0
   -3.7830   -7.6701  -21.4575 O   0  0  0  0  0
   -4.8640   -8.6247  -18.9854 O   0  0  0  0  0
   -7.7489   -4.6879  -21.5379 O   0  0  0  0  0
   -7.1212    0.6330  -16.7522 O   0  0  0  0  0
   -3.9197    0.1663  -17.4898 N   0  0  0  0  0
   -1.3081    1.7183  -14.8431 N   0  0  0  0  0
   -2.5698    0.9652  -12.9222 N   0  0  0  0  0
   -3.3319    0.5090  -15.1668 N   0  0  0  0  0
   -2.1506    1.2219  -18.3720 N   0  0  0  0  0
   -2.1600  -14.0275  -21.4621 N   0  0  0  0  0
    1.6146  -15.1467  -20.5881 N   0  0  0  0  0
    1.8429  -13.5328  -18.8039 N   0  0  0  0  0
   -0.1980  -13.6919  -20.0802 N   0  0  0  0  0
   -1.3194  -15.6874  -22.7081 N   0  0  0  0  0
   -6.9911   -5.1277  -20.0884 P   0  0  0  0  0
   -5.2750   -6.9846  -18.9873 P   0  0  0  0  0
   -3.2205   -6.2655  -20.6903 P   0  0  0  0  0
   -1.0800   -7.6899  -19.7392 P   0  0  0  0  0
  1 23  1  0  0  0
  1  2  1  0  0  0
  2  3  1  0  0  0
  2 43  1  0  0  0
  3 44  1  0  0  0
  3 25  1  0  0  0
  4  5  1  0  0  0
  5 48  1  0  0  0
  6 45  1  0  0  0
  6 24  1  0  0  0
  7 46  1  0  0  0
  7 47  1  0  0  0
  8 48  1  0  0  0
  9 44  1  0  0  0
 10 25  1  0  0  0
 10 11  1  0  0  0
 10  1  1  0  0  0
 11 26  1  0  0  0
 12 35  1  0  0  0
 13 12  1  0  0  0
 13 14  1  0  0  0
 13 38  1  0  0  0
 14 36  1  0  0  0
 14 15  1  0  0  0
 15 16  1  0  0  0
 15 39  1  0  0  0
 16 49  1  0  0  0
 16 38  1  0  0  0
 17 18  1  0  0  0
 18 53  1  0  0  0
 19 50  1  0  0  0
 19 37  1  0  0  0
 20 51  1  0  0  0
 20 52  1  0  0  0
 21 53  1  0  0  0
 22 49  1  0  0  0
 44  4  1  0  0  0
 49 17  1  0  0  0
 54 26  1  0  0  0
 54 28  1  0  0  0
 54 42  1  0  0  0
 55 28  1  0  0  0
 55 30  1  0  0  0
 55 41  1  0  0  0
 56 30  1  0  0  0
 56 32  1  0  0  0
 56 40  1  0  0  0
 57 32  1  0  0  0
 57 34  1  0  0  0
 57 35  1  0  0  0
  4 47  2  0  0  0
  5  6  2  0  0  0
  7 45  2  0  0  0
 17 52  2  0  0  0
 18 19  2  0  0  0
 20 50  2  0  0  0
 48  9  2  0  0  0
 53 22  2  0  0  0
 54 27  2  0  0  0
 55 29  2  0  0  0
 56 31  2  0  0  0
 57 33  2  0  0  0
M  CHG  4  24  -1  48   1  37  -1  53   1
M  END
> <rmsd>
0.77351594

$$$$
CHEMBL4102757


 77 84  0  0  0  0  0  0  0  0999 V2000
   -4.3042   -5.3889  -18.6283 O   0  0  0  0  0
   -1.9308   -6.3849  -20.0234 O   0  0  0  0  0
    0.8604   -7.8040  -21.7756 O   0  0  0  0  0
   -0.4024   -9.5308  -19.5164 O   0  0  0  0  0
   -3.8155   -8.6779  -19.8412 O   0  0  0  0  0
   -1.7784   -8.0412  -16.9843 O   0  0  0  0  0
   -3.7017   -5.6520  -15.9936 O   0  0  0  0  0
   -2.8068   -3.7546  -20.3184 O   0  0  0  0  0
   -4.0417   -0.9445  -19.2156 O   0  0  0  0  0
   -7.2489    0.7479  -18.7388 O   0  0  0  0  0
   -9.4007   -0.0847  -18.6881 O   0  0  0  0  0
  -11.3759   -1.7085  -16.1035 O   0  0  0  0  0
   -9.6343    0.0836  -14.6368 O   0  0  0  0  0
   -7.0633    0.2711  -15.9416 O   0  0  0  0  0
  -11.0769   -1.9483  -20.1600 O   0  0  0  0  0
   -5.4579    2.5364  -17.8298 O   0  0  0  0  0
   -8.5324   -4.6154  -21.8953 O   0  0  0  0  0
   -3.0595    3.3206  -17.1978 O   0  0  0  0  0
   -0.3913    2.7234  -17.2256 O   0  0  0  0  0
    1.7720    3.4150  -16.8241 O   0  0  0  0  0
    4.4408    4.5541  -18.9914 O   0  0  0  0  0
    2.0450    5.4607  -20.3228 O   0  0  0  0  0
   -0.0783    3.5302  -19.9436 O   0  0  0  0  0
    4.1564    2.4721  -15.4882 O   0  0  0  0  0
    0.4854    0.1954  -18.1828 O   0  0  0  0  0
   -0.6630   -2.0292  -16.3329 O   0  0  0  0  0
   -2.0829   -2.7661  -14.0323 O   0  0  0  0  0
    0.2153  -10.7366  -11.2879 O   0  0  0  0  0
   -2.9910   -5.1201  -18.2305 C   0  0  0  0  0
   -2.0909   -6.3132  -18.6235 C   0  0  0  0  0
   -2.6014   -7.6582  -18.0446 C   0  0  0  0  0
   -2.6393   -8.7787  -19.0956 C   0  0  0  0  0
   -1.4244   -8.7412  -20.0390 C   0  0  0  0  0
   -0.9042   -7.3128  -20.2471 C   0  0  0  0  0
   -0.3635   -7.1418  -21.6518 C   0  0  0  0  0
   -2.9728   -4.9245  -16.7273 C   0  0  0  0  0
   -2.0967   -3.9016  -16.1109 C   0  0  0  0  0
   -1.5320   -2.9650  -16.8913 C   0  0  0  0  0
   -1.8234   -2.8988  -18.3450 C   0  0  0  0  0
   -2.5242   -3.8702  -18.9561 C   0  0  0  0  0
   -1.3130   -1.7449  -19.1635 C   0  0  0  0  0
   -1.8014   -0.4126  -18.6656 C   0  0  0  0  0
   -0.8679    0.5207  -18.1913 C   0  0  0  0  0
   -1.2966    1.7706  -17.7101 C   0  0  0  0  0
   -2.6626    2.0835  -17.6991 C   0  0  0  0  0
   -3.6103    1.1690  -18.2116 C   0  0  0  0  0
   -3.1688   -0.0814  -18.7027 C   0  0  0  0  0
   -5.3483   -0.7082  -19.2966 C   0  0  0  0  0
   -5.8721    0.4934  -18.7791 C   0  0  0  0  0
   -8.1494   -0.1169  -18.0459 C   0  0  0  0  0
  -10.1877   -1.1042  -18.1140 C   0  0  0  0  0
  -10.5832   -0.7050  -16.6863 C   0  0  0  0  0
   -9.3146   -0.5168  -15.8527 C   0  0  0  0  0
   -8.2948    0.3528  -16.5921 C   0  0  0  0  0
  -11.4295   -1.3214  -18.9654 C   0  0  0  0  0
   -4.9918    1.4468  -18.2645 C   0  0  0  0  0
   -6.2004   -1.7175  -19.9583 C   0  0  0  0  0
   -5.9282   -3.0783  -19.7837 C   0  0  0  0  0
   -6.7055   -4.0461  -20.4271 C   0  0  0  0  0
   -7.7554   -3.6569  -21.2583 C   0  0  0  0  0
   -8.0210   -2.3010  -21.4552 C   0  0  0  0  0
   -7.2428   -1.3342  -20.8131 C   0  0  0  0  0
    0.8874    2.9549  -17.8154 C   0  0  0  0  0
    3.0629    3.4173  -17.3869 C   0  0  0  0  0
    3.1691    4.5440  -18.4171 C   0  0  0  0  0
    2.1297    4.3214  -19.5148 C   0  0  0  0  0
    0.7533    4.0057  -18.9283 C   0  0  0  0  0
    4.0889    3.6169  -16.2827 C   0  0  0  0  0
   -1.9107   -3.8571  -14.6373 C   0  0  0  0  0
   -1.5307   -5.0318  -13.8372 C   0  0  0  0  0
   -1.1638   -6.1937  -14.3719 C   0  0  0  0  0
   -0.7921   -7.3553  -13.5494 C   0  0  0  0  0
   -0.7528   -7.2823  -12.1464 C   0  0  0  0  0
   -0.4120   -8.4094  -11.3918 C   0  0  0  0  0
   -0.1097   -9.6150  -12.0345 C   0  0  0  0  0
   -0.1430   -9.6904  -13.4315 C   0  0  0  0  0
   -0.4834   -8.5631  -14.1853 C   0  0  0  0  0
 29  1  1  0  0  0
 29 30  1  0  0  0
 29 36  1  0  0  0
 29 40  1  0  0  0
 30 31  1  0  0  0
 30  2  1  0  0  0
 31 32  1  0  0  0
 31  6  1  0  0  0
 32 33  1  0  0  0
 32  5  1  0  0  0
 33 34  1  0  0  0
 33  4  1  0  0  0
 34  2  1  0  0  0
 34 35  1  0  0  0
 35  3  1  0  0  0
 36 37  1  0  0  0
 37 69  1  0  0  0
 38 39  1  0  0  0
 38 26  1  0  0  0
 40  8  1  0  0  0
 41 39  1  0  0  0
 41 42  1  0  0  0
 43 44  1  0  0  0
 43 25  1  0  0  0
 44 19  1  0  0  0
 45 46  1  0  0  0
 45 18  1  0  0  0
 47  9  1  0  0  0
 47 42  1  0  0  0
 48  9  1  0  0  0
 48 57  1  0  0  0
 49 10  1  0  0  0
 49 56  1  0  0  0
 50 10  1  0  0  0
 50 11  1  0  0  0
 51 11  1  0  0  0
 51 52  1  0  0  0
 51 55  1  0  0  0
 52 12  1  0  0  0
 52 53  1  0  0  0
 53 13  1  0  0  0
 53 54  1  0  0  0
 54 14  1  0  0  0
 54 50  1  0  0  0
 55 15  1  0  0  0
 56 46  1  0  0  0
 58 59  1  0  0  0
 60 61  1  0  0  0
 60 17  1  0  0  0
 62 57  1  0  0  0
 63 19  1  0  0  0
 63 20  1  0  0  0
 64 20  1  0  0  0
 64 65  1  0  0  0
 64 68  1  0  0  0
 65 21  1  0  0  0
 65 66  1  0  0  0
 66 22  1  0  0  0
 66 67  1  0  0  0
 67 23  1  0  0  0
 67 63  1  0  0  0
 68 24  1  0  0  0
 69 70  1  0  0  0
 71 72  1  0  0  0
 73 74  1  0  0  0
 75 76  1  0  0  0
 75 28  1  0  0  0
 77 72  1  0  0  0
 36  7  2  0  0  0
 37 38  2  0  0  0
 39 40  2  0  0  0
 42 43  2  0  0  0
 44 45  2  0  0  0
 46 47  2  0  0  0
 48 49  2  0  0  0
 56 16  2  0  0  0
 57 58  2  0  0  0
 59 60  2  0  0  0
 61 62  2  0  0  0
 69 27  2  0  0  0
 70 71  2  0  0  0
 72 73  2  0  0  0
 74 75  2  0  0  0
 76 77  2  0  0  0
M  END
> <rmsd>
0.7034657

$$$$
CHEMBL3576976 PubChem-122177373


 43 46  0  0  0  0  0  0  0  0999 V2000
   -0.5670    7.4539  -15.3274 C   0  0  0  0  0
   -0.9798    6.0532  -15.0356 C   0  0  0  0  0
   -1.8386    5.3815  -15.9123 C   0  0  0  0  0
   -2.2215    4.0655  -15.6416 C   0  0  0  0  0
   -1.7450    3.4168  -14.4945 C   0  0  0  0  0
   -4.5517    0.9438  -15.3144 C   0  0  0  0  0
   -5.0476    0.4962  -16.5378 C   0  0  0  0  0
   -6.4691    0.2012  -16.8070 C   0  0  0  0  0
   -6.9038   -0.8084  -17.7867 C   0  0  0  0  0
   -6.3821   -2.8701  -19.1659 C   0  0  0  0  0
   -6.7010   -2.3395  -20.5613 C   0  0  0  0  0
   -7.5049   -3.3203  -21.3506 C   0  0  0  0  0
   -7.0531   -4.5233  -21.8463 C   0  0  0  0  0
   -9.0935   -4.2080  -22.4364 C   0  0  0  0  0
   -5.3077   -3.9073  -19.1925 C   0  0  0  0  0
   -3.0178   -4.6533  -19.9789 C   0  0  0  0  0
   -3.4553   -5.9264  -20.7059 C   0  0  0  0  0
   -2.6033   -7.1126  -20.2796 C   0  0  0  0  0
   -3.0374   -7.6164  -18.9439 C   0  0  0  0  0
   -1.8123   -4.0205  -20.6158 C   0  0  0  0  0
   -3.9674    0.4687  -17.4075 C   0  0  0  0  0
   -3.8834    0.1827  -18.7694 C   0  0  0  0  0
   -2.6233    0.2864  -19.3846 C   0  0  0  0  0
   -1.4919    0.6828  -18.6388 C   0  0  0  0  0
   -1.6075    0.9873  -17.2716 C   0  0  0  0  0
   -2.8697    0.8695  -16.6875 C   0  0  0  0  0
   -0.8833    4.0914  -13.6220 C   0  0  0  0  0
   -0.5002    5.4067  -13.8918 C   0  0  0  0  0
   -2.1997    1.7562  -14.1573 S   0  0  0  0  0
   -0.9720    0.8968  -14.0589 O   0  0  0  0  0
   -2.9482    1.7083  -12.8546 O   0  0  0  0  0
   -7.3437    0.7798  -16.1123 O   0  0  0  0  0
   -8.1172   -0.8539  -18.1299 O   0  0  0  0  0
   -5.4706   -4.9771  -18.5508 O   0  0  0  0  0
   -2.2682   -7.5176  -17.9544 O   0  0  0  0  0
   -4.2847   -8.2130  -18.7918 O   0  0  0  0  0
   -1.4269   -4.3616  -21.7687 O   0  0  0  0  0
   -1.1104   -3.0451  -19.9206 O   0  0  0  0  0
   -3.2202    1.1534  -15.4218 N   0  0  0  0  0
   -5.9833   -1.7817  -18.2868 N   0  0  0  0  0
   -8.0686   -5.0829  -22.5292 N   0  0  0  0  0
   -8.7780   -3.1102  -21.7194 N   0  0  0  0  0
   -4.1102   -3.6902  -19.9500 N   0  0  0  0  0
  1  2  1  0  0  0
  3  4  1  0  0  0
  5 27  1  0  0  0
  7  8  1  0  0  0
  7 21  1  0  0  0
  8  9  1  0  0  0
  9 40  1  0  0  0
 10 40  1  0  0  0
 10 11  1  0  0  0
 10 15  1  0  0  0
 11 12  1  0  0  0
 13 41  1  0  0  0
 14 42  1  0  0  0
 15 43  1  0  0  0
 16 43  1  0  0  0
 16 17  1  0  0  0
 16 20  1  0  0  0
 17 18  1  0  0  0
 18 19  1  0  0  0
 19 36  1  0  0  0
 20 38  1  0  0  0
 22 23  1  0  0  0
 24 25  1  0  0  0
 26 39  1  0  0  0
 26 21  1  0  0  0
 28  2  1  0  0  0
 29  5  1  0  0  0
 29 39  1  0  0  0
 39  6  1  0  0  0
 42 12  1  0  0  0
  2  3  2  0  0  0
  4  5  2  0  0  0
  6  7  2  0  0  0
  8 32  2  0  0  0
  9 33  2  0  0  0
 12 13  2  0  0  0
 14 41  2  0  0  0
 15 34  2  0  0  0
 19 35  2  0  0  0
 20 37  2  0  0  0
 21 22  2  0  0  0
 23 24  2  0  0  0
 25 26  2  0  0  0
 27 28  2  0  0  0
 29 30  2  0  0  0
 29 31  2  0  0  0
M  END
> <rmsd>
0.777097642

$$$$
CHEMBL2087238 PubChem-66554347


 56 62  0  0  0  0  0  0  0  0999 V2000
   -8.9052    0.3411  -19.3115 C   0  0  0  0  0
   -8.1650    0.2627  -20.6621 C   0  0  0  0  0
   -7.2064   -0.9257  -20.6727 C   0  0  0  0  0
   -7.9265   -2.2278  -20.3141 C   0  0  0  0  0
   -9.1339   -1.9502  -19.4024 C   0  0  0  0  0
   -6.6560   -4.3433  -20.2082 C   0  0  0  0  0
   -5.6290   -5.1754  -19.5418 C   0  0  0  0  0
   -5.4549   -6.5047  -19.9511 C   0  0  0  0  0
   -4.5089   -7.3252  -19.3317 C   0  0  0  0  0
   -3.7229   -6.8246  -18.2872 C   0  0  0  0  0
   -3.8790   -5.4982  -17.8695 C   0  0  0  0  0
   -4.8172   -4.6650  -18.5036 C   0  0  0  0  0
   -4.0615   -2.2909  -18.3736 C   0  0  0  0  0
   -2.8910   -2.4455  -19.1651 C   0  0  0  0  0
   -2.0374   -1.3567  -19.3867 C   0  0  0  0  0
   -2.3349   -0.1003  -18.8522 C   0  0  0  0  0
   -3.5058    0.0586  -18.1001 C   0  0  0  0  0
   -4.3709   -1.0228  -17.8592 C   0  0  0  0  0
   -5.8360    0.3525  -16.6494 C   0  0  0  0  0
   -5.0123    1.4759  -16.8488 C   0  0  0  0  0
   -3.8316    1.3107  -17.5878 C   0  0  0  0  0
   -2.9653    2.3935  -17.8300 C   0  0  0  0  0
   -1.5121    1.0241  -19.0564 C   0  0  0  0  0
   -3.2880    3.6586  -17.3177 C   0  0  0  0  0
   -4.4680    3.8308  -16.5737 C   0  0  0  0  0
   -5.3263    2.7442  -16.3416 C   0  0  0  0  0
   -5.2098   -0.8508  -22.1035 C   0  0  0  0  0
   -4.5512   -1.2521  -23.3553 C   0  0  0  0  0
   -5.3002   -1.8276  -24.3919 C   0  0  0  0  0
   -4.6785   -2.2222  -25.5800 C   0  0  0  0  0
   -3.2973   -2.0454  -25.7380 C   0  0  0  0  0
   -2.5437   -1.4700  -24.7040 C   0  0  0  0  0
   -3.1698   -1.0775  -23.5187 C   0  0  0  0  0
  -10.3281    0.8480  -19.4981 C   0  0  0  0  0
   -8.8732   -0.8588  -18.5501 O   0  0  0  0  0
   -9.4681   -3.0768  -18.6495 O   0  0  0  0  0
   -7.0007   -3.0975  -19.6775 O   0  0  0  0  0
   -7.2289   -4.7654  -21.2514 O   0  0  0  0  0
   -4.9579   -3.3376  -18.0891 O   0  0  0  0  0
   -5.4872   -0.8336  -17.1520 O   0  0  0  0  0
   -6.9093    0.4537  -15.9967 O   0  0  0  0  0
   -1.8531    2.2088  -18.5432 O   0  0  0  0  0
   -0.4483    0.9257  -19.7258 O   0  0  0  0  0
   -4.7936    5.0819  -16.0636 O   0  0  0  0  0
   -2.4425    4.7420  -17.5477 O   0  0  0  0  0
   -2.5637   -3.6583  -19.7549 O   0  0  0  0  0
   -3.1000   -5.0032  -16.8277 O   0  0  0  0  0
   -2.7850   -7.6434  -17.6668 O   0  0  0  0  0
   -4.3585   -8.6403  -19.7537 O   0  0  0  0  0
   -6.5806   -1.0619  -21.9405 O   0  0  0  0  0
   -4.5387   -0.3101  -21.1818 O   0  0  0  0  0
   -1.1736   -1.2894  -24.8484 O   0  0  0  0  0
   -2.6753   -2.4408  -26.9179 O   0  0  0  0  0
   -5.4370   -2.7891  -26.5988 O   0  0  0  0  0
   -7.4584    1.4473  -20.8735 O   0  0  0  0  0
  -10.8695    1.2004  -18.2628 O   0  0  0  0  0
  1  2  1  0  0  0
  1 34  1  0  0  0
  1 35  1  0  0  0
  2  3  1  0  0  0
  2 55  1  0  0  0
  3  4  1  0  0  0
  3 50  1  0  0  0
  4  5  1  0  0  0
  4 37  1  0  0  0
  5 35  1  0  0  0
  5 36  1  0  0  0
  6 37  1  0  0  0
  6  7  1  0  0  0
  8  9  1  0  0  0
  9 49  1  0  0  0
 10 11  1  0  0  0
 10 48  1  0  0  0
 11 47  1  0  0  0
 12 39  1  0  0  0
 12  7  1  0  0  0
 13 39  1  0  0  0
 14 15  1  0  0  0
 14 46  1  0  0  0
 16 17  1  0  0  0
 18 40  1  0  0  0
 18 13  1  0  0  0
 19 40  1  0  0  0
 19 20  1  0  0  0
 21 22  1  0  0  0
 21 17  1  0  0  0
 22 42  1  0  0  0
 23 42  1  0  0  0
 23 16  1  0  0  0
 24 25  1  0  0  0
 24 45  1  0  0  0
 25 44  1  0  0  0
 26 20  1  0  0  0
 27 50  1  0  0  0
 27 28  1  0  0  0
 29 30  1  0  0  0
 30 54  1  0  0  0
 31 32  1  0  0  0
 31 53  1  0  0  0
 32 52  1  0  0  0
 33 28  1  0  0  0
 34 56  1  0  0  0
  6 38  2  0  0  0
  7  8  2  0  0  0
  9 10  2  0  0  0
 11 12  2  0  0  0
 13 14  2  0  0  0
 15 16  2  0  0  0
 17 18  2  0  0  0
 19 41  2  0  0  0
 20 21  2  0  0  0
 22 24  2  0  0  0
 23 43  2  0  0  0
 25 26  2  0  0  0
 27 51  2  0  0  0
 28 29  2  0  0  0
 30 31  2  0  0  0
 32 33  2  0  0  0
M  END
> <rmsd>
0.661170304

$$$$
CHEMBL227711 PubChem-131865563 PubChem-16221096 PubChem-448873


 36 38  0  0  0  0  0  0  0  0999 V2000
   -0.3890    1.3226  -18.4879 O   0  0  0  0  0
   -5.5048   -1.5654  -16.9039 O   0  0  0  0  0
   -6.6510   -2.9031  -20.0775 O   0  0  0  0  0
   -8.0780   -4.5690  -18.6433 O   0  0  0  0  0
   -8.2474   -4.8490  -21.2196 O   0  0  0  0  0
   -5.9903   -5.6285  -19.7986 O   0  0  0  0  0
   -4.0732   -4.2371  -20.9616 O   0  0  0  0  0
   -5.8674   -5.2413  -22.5797 O   0  0  0  0  0
   -4.0104   -6.8247  -21.3314 O   0  0  0  0  0
   -4.2791   -8.0153  -19.3624 O   0  0  0  0  0
   -6.3627   -9.8487  -20.1156 O   0  0  0  0  0
   -2.2194  -10.7600  -20.3773 O   0  0  0  0  0
   -1.6638   -8.2955  -17.9332 O   0  0  0  0  0
   -1.1529   -6.4372  -19.9191 O   0  0  0  0  0
   -8.2758   -0.5147  -18.7563 O   0  0  0  0  0
   -7.5564    0.7475  -16.5916 O   0  0  0  0  0
   -3.2218    0.2624  -15.1111 O   0  0  0  0  0
   -1.5408    0.9847  -18.1075 C   0  0  0  0  0
   -2.5487    0.7748  -19.0421 C   0  0  0  0  0
   -3.8109    0.4089  -18.5800 C   0  0  0  0  0
   -5.3749   -0.1681  -16.7665 C   0  0  0  0  0
   -6.4336   -1.8080  -17.9382 C   0  0  0  0  0
   -5.7845   -2.6909  -18.9975 C   0  0  0  0  0
   -3.4725   -7.0815  -20.0647 C   0  0  0  0  0
   -4.0538   -9.2964  -19.9033 C   0  0  0  0  0
   -5.1743  -10.2418  -19.4983 C   0  0  0  0  0
   -2.6939   -9.8360  -19.4448 C   0  0  0  0  0
   -1.6720   -8.7038  -19.2685 C   0  0  0  0  0
   -1.9978   -7.5165  -20.1867 C   0  0  0  0  0
   -6.8959   -0.4916  -18.5284 C   0  0  0  0  0
   -6.5106    0.5288  -17.4924 C   0  0  0  0  0
   -3.0334    0.4477  -16.3468 C   0  0  0  0  0
   -4.0529    0.2660  -17.2411 N   0  0  0  0  0
   -1.7987    0.8169  -16.7849 N   0  0  0  0  0
   -7.2462   -4.4857  -19.9046 P   0  0  0  0  0
   -4.9739   -5.4375  -21.1557 P   0  0  0  0  0
 18 19  1  0  0  0
 20 33  1  0  0  0
 21 33  1  0  0  0
 21  2  1  0  0  0
 22  2  1  0  0  0
 22 23  1  0  0  0
 22 30  1  0  0  0
 23  3  1  0  0  0
 24  9  1  0  0  0
 24 10  1  0  0  0
 25 10  1  0  0  0
 25 26  1  0  0  0
 25 27  1  0  0  0
 26 11  1  0  0  0
 27 12  1  0  0  0
 27 28  1  0  0  0
 28 13  1  0  0  0
 28 29  1  0  0  0
 29 14  1  0  0  0
 29 24  1  0  0  0
 30 15  1  0  0  0
 30 31  1  0  0  0
 31 16  1  0  0  0
 31 21  1  0  0  0
 32 34  1  0  0  0
 33 32  1  0  0  0
 34 18  1  0  0  0
 35  3  1  0  0  0
 35  5  1  0  0  0
 35  6  1  0  0  0
 36  6  1  0  0  0
 36  8  1  0  0  0
 36  9  1  0  0  0
 18  1  2  0  0  0
 19 20  2  0  0  0
 32 17  2  0  0  0
 35  4  2  0  0  0
 36  7  2  0  0  0
M  END
> <rmsd>
0.752102792

$$$$
CHEMBL1234616 CHEMBL3350400 MolPort-046-764-231 PubChem-117927105 PubChem-117929336 PubChem-117992693 PubChem-118392760 PubChem-118718883 PubChem-129673572 PubChem-130421550 PubChem-131673989 PubChem-131719436 PubChem-134821601 PubChem-141425725 PubChem-162716938 PubChem-166063326 PubChem-166072229 PubChem-439153 PubChem-73950314 PubChem-86587242 PubChem-86617950 PubChem-86735865 PubChem-86735866 PubChem-86745689 PubChem-86760560 PubChem-86760561 PubChem-87058056 PubChem-87058202 PubChem-87060586 PubChem-87068790 PubChem-87136546 PubChem-87136633 PubChem-87151833 PubChem-87157633 PubChem-87221852 PubChem-87221943 PubChem-87271817 PubChem-87274059 PubChem-87324848 PubChem-87325282 PubChem-87330646 PubChem-87331576 PubChem-87452963 PubChem-87454327 PubChem-87473424 PubChem-87598390 PubChem-87603020 PubChem-87623542 PubChem-87696935 PubChem-87709337 PubChem-87770769 PubChem-87776597 PubChem-87778022 PubChem-87862309 PubChem-87880542 PubChem-87898946 PubChem-87900038 PubChem-87950498 PubChem-87977586 PubChem-87998158 PubChem-88020497 PubChem-88065010 PubChem-88114256 PubChem-88217982 PubChem-88218252 PubChem-88233507 PubChem-88234826 PubChem-88296785 PubChem-88301565 PubChem-88312092 PubChem-88341654 PubChem-88393365 PubChem-88416225 PubChem-88436080 PubChem-88499310 PubChem-88626360 PubChem-88632953 PubChem-88642443 PubChem-88651479 PubChem-88651557 PubChem-88664734 PubChem-88666910 PubChem-88667910 PubChem-88668845 PubChem-88777087 PubChem-88781830 PubChem-88922947 PubChem-88929971 PubChem-89499935 PubChem-9832411


 44 48  0  0  0  0  0  0  0  0999 V2000
   -5.0067   -0.0218  -18.6236 N   0  0  0  0  0
   -4.0019    0.2671  -20.6334 N   0  0  0  0  0
   -1.0164    0.4643  -18.5337 N   0  0  0  0  0
   -3.0044    0.1034  -17.2751 N   0  0  0  0  0
   -1.0508    0.6649  -20.9495 N   0  0  0  0  0
   -2.3426  -10.1075  -15.6311 N   0  0  0  0  0
   -6.5823  -10.4741  -16.2369 N   0  0  0  0  0
   -3.6921    0.1303  -18.4434 C   0  0  0  0  0
   -3.0937    0.3104  -19.6402 C   0  0  0  0  0
   -5.1741    0.0484  -19.9716 C   0  0  0  0  0
   -1.7187    0.4862  -19.7058 C   0  0  0  0  0
   -1.6477    0.2745  -17.3290 C   0  0  0  0  0
   -6.0055   -0.3293  -17.6059 C   0  0  0  0  0
   -7.7131   -1.8079  -17.8840 C   0  0  0  0  0
   -8.2440   -0.4746  -18.3450 C   0  0  0  0  0
   -7.2513    0.5113  -17.7972 C   0  0  0  0  0
   -7.9827   -2.8563  -18.9516 C   0  0  0  0  0
   -3.7131   -8.0672  -18.8101 C   0  0  0  0  0
   -2.3604   -8.7312  -18.6123 C   0  0  0  0  0
   -1.4962   -9.7359  -16.7600 C   0  0  0  0  0
   -1.5246  -10.8053  -17.8317 C   0  0  0  0  0
   -2.4575  -10.2205  -18.8529 C   0  0  0  0  0
   -3.7630  -10.2414  -15.7872 C   0  0  0  0  0
   -4.5452  -10.5912  -14.7594 C   0  0  0  0  0
   -3.9567  -10.8837  -13.3970 C   0  0  0  0  0
   -2.4721  -10.6495  -13.2959 C   0  0  0  0  0
   -1.7360  -10.2985  -14.3495 C   0  0  0  0  0
   -6.0004  -10.7138  -14.9574 C   0  0  0  0  0
   -6.3277   -1.7014  -17.6547 O   0  0  0  0  0
   -7.6576    1.0086  -16.5541 O   0  0  0  0  0
   -9.5306   -0.2596  -17.8418 O   0  0  0  0  0
   -7.4957   -4.0991  -18.5376 O   0  0  0  0  0
   -5.2883   -3.5880  -19.8587 O   0  0  0  0  0
   -5.8037   -6.1223  -19.3122 O   0  0  0  0  0
   -3.5959   -5.6646  -20.7083 O   0  0  0  0  0
   -4.1146   -8.1647  -20.1446 O   0  0  0  0  0
   -1.9148   -8.4993  -17.2957 O   0  0  0  0  0
   -2.0668  -10.5331  -20.1582 O   0  0  0  0  0
   -0.2355  -10.9527  -18.3529 O   0  0  0  0  0
   -6.7462  -11.0275  -13.9919 O   0  0  0  0  0
   -5.5737   -6.7829  -22.0091 O   0  0  0  0  0
   -7.2425   -4.6861  -21.2261 O   0  0  0  0  0
   -6.4155   -4.5936  -19.7497 P   0  0  0  0  0
   -4.7422   -6.6396  -20.5438 P   0  0  0  0  0
  1  8  1  0  0  0
  6 23  1  0  0  0
  8  4  1  0  0  0
  9  2  1  0  0  0
  9 11  1  0  0  0
 10  1  1  0  0  0
 11  5  1  0  0  0
 12  3  1  0  0  0
 13  1  1  0  0  0
 13 29  1  0  0  0
 14 29  1  0  0  0
 14 15  1  0  0  0
 14 17  1  0  0  0
 15 16  1  0  0  0
 15 31  1  0  0  0
 16 30  1  0  0  0
 16 13  1  0  0  0
 17 32  1  0  0  0
 18 36  1  0  0  0
 19 18  1  0  0  0
 19 37  1  0  0  0
 20 37  1  0  0  0
 20 21  1  0  0  0
 20  6  1  0  0  0
 21 22  1  0  0  0
 21 39  1  0  0  0
 22 38  1  0  0  0
 22 19  1  0  0  0
 24 28  1  0  0  0
 25 24  1  0  0  0
 25 26  1  0  0  0
 27  6  1  0  0  0
 28  7  1  0  0  0
 43 32  1  0  0  0
 43 34  1  0  0  0
 43 42  1  0  0  0
 44 34  1  0  0  0
 44 36  1  0  0  0
 44 41  1  0  0  0
  8  9  2  0  0  0
 10  2  2  0  0  0
 11  3  2  0  0  0
 12  4  2  0  0  0
 23 24  2  0  0  0
 26 27  2  0  0  0
 28 40  2  0  0  0
 43 33  2  0  0  0
 44 35  2  0  0  0
M  END
> <rmsd>
0.823508143

$$$$
CHEMBL4595417 PubChem-155511685


 79 84  0  0  0  0  0  0  0  0999 V2000
    1.8552   -0.5532  -15.0011 O   0  0  0  0  0
    1.6855   -2.2958  -16.7227 O   0  0  0  0  0
    0.7481    0.0837  -17.2949 O   0  0  0  0  0
    2.9658    4.3185  -16.4883 O   0  0  0  0  0
    3.0749    6.4664  -17.9995 O   0  0  0  0  0
    1.9997    6.6641  -15.7972 O   0  0  0  0  0
    4.5876    6.4795  -15.8830 O   0  0  0  0  0
   -2.7157   -0.7024  -20.8733 O   0  0  0  0  0
   -2.6705    1.4474  -17.4850 O   0  0  0  0  0
   -7.1080    0.2438  -16.2835 O   0  0  0  0  0
   -8.4307   -2.0005  -16.6659 O   0  0  0  0  0
   -9.5262   -0.2299  -15.3789 O   0  0  0  0  0
   -9.3209    0.0852  -17.9474 O   0  0  0  0  0
   -5.1525   -1.4950  -20.3975 O   0  0  0  0  0
   -7.2580   -5.0220  -21.4302 O   0  0  0  0  0
   -7.6951   -5.0808  -23.9999 O   0  0  0  0  0
   -7.2917   -6.0305  -26.5105 O   0  0  0  0  0
   -9.7322   -6.6084  -25.7352 O   0  0  0  0  0
   -9.3589   -6.1188  -28.1186 O   0  0  0  0  0
   -8.5419   -8.4100  -27.1857 O   0  0  0  0  0
   -4.8740  -10.1924  -25.9203 O   0  0  0  0  0
   -5.9549  -12.4008  -26.8474 O   0  0  0  0  0
   -3.5120  -12.3411  -26.6173 O   0  0  0  0  0
   -4.9453  -12.5361  -24.4566 O   0  0  0  0  0
   -4.2557   -9.5587  -30.7228 O   0  0  0  0  0
   -3.5284  -11.3827  -32.4563 O   0  0  0  0  0
   -4.2917  -12.1618  -30.2627 O   0  0  0  0  0
   -1.9483  -11.0470  -30.4269 O   0  0  0  0  0
   -4.8306   -7.8390  -24.5263 O   0  0  0  0  0
   -3.6986   -7.9824  -19.9137 O   0  0  0  0  0
   -5.2825   -8.3690  -17.8564 O   0  0  0  0  0
   -4.0806   -6.2218  -17.9784 O   0  0  0  0  0
   -2.7346   -8.3523  -17.3475 O   0  0  0  0  0
   -0.4353    0.6709  -20.2483 O   0  0  0  0  0
   -1.3161    1.2316  -22.6629 O   0  0  0  0  0
    1.0706    1.5402  -22.2026 O   0  0  0  0  0
   -0.5993    3.2607  -21.2071 O   0  0  0  0  0
    3.4678   -0.4227  -17.0408 O   0  0  0  0  0
    1.9365   -0.8322  -16.4769 S   0  0  0  0  0
    3.1189    6.0212  -16.5630 S   0  0  0  0  0
   -8.6216   -0.5151  -16.5407 S   0  0  0  0  0
   -8.7787   -6.7704  -26.8895 S   0  0  0  0  0
   -4.8126  -11.8996  -26.0048 S   0  0  0  0  0
   -3.5320  -11.0859  -30.9828 S   0  0  0  0  0
   -3.9937   -7.7025  -18.2500 S   0  0  0  0  0
   -0.3131    1.6606  -21.6310 S   0  0  0  0  0
    0.7444    1.4832  -17.3360 C   0  0  0  0  0
   -0.3914    2.1622  -17.8117 C   0  0  0  0  0
   -0.4054    3.5618  -17.8484 C   0  0  0  0  0
    0.7065    4.2896  -17.4229 C   0  0  0  0  0
    1.8413    3.6228  -16.9422 C   0  0  0  0  0
    1.8521    2.2266  -16.9007 C   0  0  0  0  0
   -1.5838    1.4246  -18.2498 C   0  0  0  0  0
   -1.5769    0.6949  -19.4471 C   0  0  0  0  0
   -2.7231   -0.0241  -19.8097 C   0  0  0  0  0
   -3.8595    0.0085  -18.9698 C   0  0  0  0  0
   -5.0535   -0.6970  -19.2500 C   0  0  0  0  0
   -6.1338   -0.6057  -18.3560 C   0  0  0  0  0
   -6.0465    0.1622  -17.1903 C   0  0  0  0  0
   -4.8681    0.8531  -16.9144 C   0  0  0  0  0
   -3.7798    0.7817  -17.7860 C   0  0  0  0  0
   -6.2806   -2.3130  -20.6817 C   0  0  0  0  0
   -6.2848   -3.5334  -19.7784 C   0  0  0  0  0
   -7.4488   -4.4406  -20.1399 C   0  0  0  0  0
   -6.2738   -5.9830  -21.7141 C   0  0  0  0  0
   -6.0535   -6.4252  -23.0434 C   0  0  0  0  0
   -6.7953   -5.9532  -24.1453 C   0  0  0  0  0
   -6.5365   -6.4629  -25.4229 C   0  0  0  0  0
   -5.5177   -7.4226  -25.5876 C   0  0  0  0  0
   -5.1902   -7.9989  -26.9151 C   0  0  0  0  0
   -5.2052   -7.1860  -28.0623 C   0  0  0  0  0
   -4.8956   -7.7120  -29.3187 C   0  0  0  0  0
   -4.5544   -9.0583  -29.4525 C   0  0  0  0  0
   -4.5339   -9.8757  -28.3142 C   0  0  0  0  0
   -4.8543   -9.3618  -27.0467 C   0  0  0  0  0
   -5.0511   -7.3923  -23.2943 C   0  0  0  0  0
   -4.2833   -7.8934  -22.2419 C   0  0  0  0  0
   -4.4980   -7.4626  -20.9339 C   0  0  0  0  0
   -5.4936   -6.5150  -20.6786 C   0  0  0  0  0
 39  3  1  0  0  0
 39 38  1  0  0  0
 40  4  1  0  0  0
 40  7  1  0  0  0
 41 10  1  0  0  0
 41 13  1  0  0  0
 42 17  1  0  0  0
 42 20  1  0  0  0
 43 21  1  0  0  0
 43 24  1  0  0  0
 44 25  1  0  0  0
 44 28  1  0  0  0
 45 30  1  0  0  0
 45 33  1  0  0  0
 46 34  1  0  0  0
 46 37  1  0  0  0
 47  3  1  0  0  0
 48 49  1  0  0  0
 48 53  1  0  0  0
 50 51  1  0  0  0
 51  4  1  0  0  0
 52 47  1  0  0  0
 53  9  1  0  0  0
 54 55  1  0  0  0
 54 34  1  0  0  0
 55 56  1  0  0  0
 57 58  1  0  0  0
 57 14  1  0  0  0
 59 60  1  0  0  0
 59 10  1  0  0  0
 61  9  1  0  0  0
 61 56  1  0  0  0
 62 14  1  0  0  0
 62 63  1  0  0  0
 63 64  1  0  0  0
 64 15  1  0  0  0
 65 15  1  0  0  0
 66 67  1  0  0  0
 67 68  1  0  0  0
 68 17  1  0  0  0
 69 70  1  0  0  0
 69 29  1  0  0  0
 71 72  1  0  0  0
 73 74  1  0  0  0
 73 25  1  0  0  0
 75 21  1  0  0  0
 75 70  1  0  0  0
 76 29  1  0  0  0
 76 66  1  0  0  0
 77 78  1  0  0  0
 78 30  1  0  0  0
 79 65  1  0  0  0
 39  1  2  0  0  0
 39  2  2  0  0  0
 40  5  2  0  0  0
 40  6  2  0  0  0
 41 11  2  0  0  0
 41 12  2  0  0  0
 42 18  2  0  0  0
 42 19  2  0  0  0
 43 22  2  0  0  0
 43 23  2  0  0  0
 44 26  2  0  0  0
 44 27  2  0  0  0
 45 31  2  0  0  0
 45 32  2  0  0  0
 46 35  2  0  0  0
 46 36  2  0  0  0
 47 48  2  0  0  0
 49 50  2  0  0  0
 51 52  2  0  0  0
 53 54  2  0  0  0
 55  8  2  0  0  0
 56 57  2  0  0  0
 58 59  2  0  0  0
 60 61  2  0  0  0
 65 66  2  0  0  0
 67 16  2  0  0  0
 68 69  2  0  0  0
 70 71  2  0  0  0
 72 73  2  0  0  0
 74 75  2  0  0  0
 76 77  2  0  0  0
 78 79  2  0  0  0
M  END
> <rmsd>
0.71445787

$$$$
CHEMBL366343 PubChem-44397470


 56 59  0  0  0  0  0  0  0  0999 V2000
   -8.2824   -0.7778  -17.0978 S   0  0  0  0  0
   -8.9128   -0.3115  -18.3793 O   0  0  0  0  0
   -7.3360    0.2730  -16.5936 O   0  0  0  0  0
   -6.0309   -0.7150  -20.0490 O   0  0  0  0  0
   -7.9855   -4.9864  -21.6449 O   0  0  0  0  0
   -8.2601   -2.3273  -26.5357 O   0  0  0  0  0
   -1.8302   -6.3403  -20.3933 O   0  0  0  0  0
   -2.0995   -8.4198  -18.0085 O   0  0  0  0  0
   -4.1273   -8.0097  -19.0022 O   0  0  0  0  0
   -2.7754   -2.2605  -15.5398 O   0  0  0  0  0
   -4.5521   -0.8046  -15.7933 O   0  0  0  0  0
   -7.4375   -2.2696  -17.3802 N   0  0  0  0  0
   -6.9327   -2.8603  -20.2818 N   0  0  0  0  0
   -9.8692   -3.9887  -26.3296 N   0  0  0  0  0
   -6.1672   -1.9765  -18.0358 C   0  0  0  0  0
   -6.3651   -1.8011  -19.5055 C   0  0  0  0  0
   -7.0923   -2.7918  -21.7325 C   0  0  0  0  0
   -7.9549   -3.9152  -22.2317 C   0  0  0  0  0
   -8.7701   -3.7361  -23.4735 C   0  0  0  0  0
   -7.9070   -3.8402  -24.7261 C   0  0  0  0  0
   -8.6741   -3.3376  -25.9089 C   0  0  0  0  0
   -7.4460   -5.2812  -24.9459 C   0  0  0  0  0
   -6.3687   -5.3721  -26.0164 C   0  0  0  0  0
   -6.1533   -6.8243  -26.3850 C   0  0  0  0  0
   -5.0629   -4.7882  -25.5106 C   0  0  0  0  0
   -5.7404   -2.7405  -22.4587 C   0  0  0  0  0
   -4.7292   -3.7081  -21.9253 C   0  0  0  0  0
   -3.5778   -3.2175  -21.3005 C   0  0  0  0  0
   -2.6215   -4.1022  -20.7962 C   0  0  0  0  0
   -2.8072   -5.4839  -20.9113 C   0  0  0  0  0
   -2.0030   -7.7497  -20.2957 C   0  0  0  0  0
   -2.7388   -8.0869  -19.0419 C   0  0  0  0  0
   -3.9590   -5.9755  -21.5495 C   0  0  0  0  0
   -4.9135   -5.0898  -22.0568 C   0  0  0  0  0
   -5.1762   -3.1069  -17.7868 C   0  0  0  0  0
   -4.8058   -3.2319  -16.3153 C   0  0  0  0  0
   -3.9778   -2.0749  -15.8681 C   0  0  0  0  0
   -3.7943    0.3687  -15.5344 C   0  0  0  0  0
   -3.0562    0.7810  -16.7593 C   0  0  0  0  0
   -1.6715    0.6026  -16.8331 C   0  0  0  0  0
   -0.9789    0.9702  -17.9905 C   0  0  0  0  0
   -1.6717    1.5134  -19.0783 C   0  0  0  0  0
   -3.0564    1.6883  -19.0077 C   0  0  0  0  0
   -3.7492    1.3211  -17.8499 C   0  0  0  0  0
   -9.5500   -1.0512  -15.8824 C   0  0  0  0  0
  -10.4615    0.1579  -15.8042 C   0  0  0  0  0
  -11.5091   -0.0239  -14.7504 C   0  0  0  0  0
  -12.5621   -0.9574  -14.8784 C   0  0  0  0  0
  -13.5377   -1.0544  -13.8543 C   0  0  0  0  0
  -13.4580   -0.2294  -12.7315 C   0  0  0  0  0
  -12.4170    0.6945  -12.6152 C   0  0  0  0  0
  -11.4518    0.7980  -13.6206 C   0  0  0  0  0
  -14.5859   -1.9729  -13.9663 C   0  0  0  0  0
  -14.6759   -2.7985  -15.0890 C   0  0  0  0  0
  -13.7204   -2.7072  -16.1053 C   0  0  0  0  0
  -12.6696   -1.7907  -16.0021 C   0  0  0  0  0
  1 12  1  0  0  0
  1 45  1  0  0  0
 15 12  1  0  0  0
 15 16  1  0  0  0
 15 35  1  0  0  0
 16 13  1  0  0  0
 17 13  1  0  0  0
 17 18  1  0  0  0
 17 26  1  0  0  0
 19 18  1  0  0  0
 20 19  1  0  0  0
 20 21  1  0  0  0
 20 22  1  0  0  0
 21 14  1  0  0  0
 22 23  1  0  0  0
 23 24  1  0  0  0
 23 25  1  0  0  0
 26 27  1  0  0  0
 28 29  1  0  0  0
 30  7  1  0  0  0
 30 33  1  0  0  0
 31  7  1  0  0  0
 31 32  1  0  0  0
 32  9  1  0  0  0
 34 27  1  0  0  0
 35 36  1  0  0  0
 36 37  1  0  0  0
 37 11  1  0  0  0
 38 11  1  0  0  0
 38 39  1  0  0  0
 40 41  1  0  0  0
 42 43  1  0  0  0
 44 39  1  0  0  0
 45 46  1  0  0  0
 46 47  1  0  0  0
 48 49  1  0  0  0
 49 53  1  0  0  0
 50 51  1  0  0  0
 52 47  1  0  0  0
 54 55  1  0  0  0
 56 48  1  0  0  0
  1  2  2  0  0  0
  1  3  2  0  0  0
 16  4  2  0  0  0
 18  5  2  0  0  0
 21  6  2  0  0  0
 27 28  2  0  0  0
 29 30  2  0  0  0
 32  8  2  0  0  0
 33 34  2  0  0  0
 37 10  2  0  0  0
 39 40  2  0  0  0
 41 42  2  0  0  0
 43 44  2  0  0  0
 47 48  2  0  0  0
 49 50  2  0  0  0
 51 52  2  0  0  0
 53 54  2  0  0  0
 55 56  2  0  0  0
M  END
> <rmsd>
0.492252111

$$$$
CHEMBL4213277


 83 89  0  0  0  0  0  0  0  0999 V2000
   -4.5247    1.0454  -18.6591 N   0  0  0  0  0
   -3.6115    2.5631  -20.1012 N   0  0  0  0  0
   -5.7454    1.5221  -20.7351 N   0  0  0  0  0
   -5.3237    7.2646  -19.0363 N   0  0  0  0  0
   -7.9079   13.2373  -20.2690 N   0  0  0  0  0
  -13.9419   19.9567  -19.3787 N   0  0  0  0  0
   -1.0361    2.6940  -17.5133 N   0  0  0  0  0
   -2.7864    1.1694  -16.9846 N   0  0  0  0  0
   -1.0378    3.9877  -19.5631 N   0  0  0  0  0
   -5.3945    0.0283  -18.0749 C   0  0  0  0  0
   -6.8503    0.4674  -18.1022 C   0  0  0  0  0
   -7.5446   -0.6671  -18.8172 C   0  0  0  0  0
   -6.5241   -1.7750  -18.7668 C   0  0  0  0  0
   -6.6759   -2.6923  -19.9652 C   0  0  0  0  0
   -3.3736    1.5069  -18.1592 C   0  0  0  0  0
   -2.8339    2.4109  -19.0126 C   0  0  0  0  0
   -4.6352    1.6979  -19.8474 C   0  0  0  0  0
   -5.9540    2.3629  -21.9089 C   0  0  0  0  0
   -6.1949    3.8096  -21.4942 C   0  0  0  0  0
   -7.4615    3.9181  -20.6589 C   0  0  0  0  0
   -7.4792    5.2173  -19.8715 C   0  0  0  0  0
   -6.5074    5.1494  -18.7005 C   0  0  0  0  0
   -5.1848    5.8136  -19.0578 C   0  0  0  0  0
   -5.5093    8.0032  -17.8245 C   0  0  0  0  0
   -5.7418    9.4749  -17.8727 C   0  0  0  0  0
   -7.1500    9.7604  -18.3475 C   0  0  0  0  0
   -7.5153   11.1965  -18.0216 C   0  0  0  0  0
   -8.8118   11.5831  -18.7134 C   0  0  0  0  0
   -8.5575   11.9359  -20.1697 C   0  0  0  0  0
   -8.5120   14.5226  -20.1047 C   0  0  0  0  0
   -9.8337   14.6813  -19.9734 C   0  0  0  0  0
  -10.4684   15.9909  -19.8348 C   0  0  0  0  0
  -11.7847   16.0823  -19.7311 C   0  0  0  0  0
  -12.4157   17.3898  -19.5970 C   0  0  0  0  0
  -13.7327   17.4836  -19.4738 C   0  0  0  0  0
  -14.4708   18.7608  -19.3359 C   0  0  0  0  0
  -14.9889   20.8995  -19.2201 C   0  0  0  0  0
  -14.8830   22.2907  -19.2148 C   0  0  0  0  0
  -16.0599   23.0388  -19.0475 C   0  0  0  0  0
  -17.3053   22.3937  -18.8920 C   0  0  0  0  0
  -17.3796   20.9904  -18.9079 C   0  0  0  0  0
  -16.1959   20.2682  -19.0709 C   0  0  0  0  0
  -15.9726   18.7949  -19.1293 C   0  0  0  0  0
  -16.3701   18.1291  -17.8233 C   0  0  0  0  0
  -16.7093   18.1692  -20.3027 C   0  0  0  0  0
  -12.5436   20.3044  -19.6102 C   0  0  0  0  0
  -12.3256   20.6442  -21.0726 C   0  0  0  0  0
   -7.4689   15.6239  -20.1327 C   0  0  0  0  0
   -7.6729   16.5655  -21.3069 C   0  0  0  0  0
   -7.4233   16.3897  -18.8207 C   0  0  0  0  0
   -6.2205   14.8143  -20.3195 C   0  0  0  0  0
   -6.5182   13.4700  -20.3989 C   0  0  0  0  0
   -5.5242   12.5067  -20.5708 C   0  0  0  0  0
   -4.1932   12.9405  -20.6534 C   0  0  0  0  0
   -3.8783   14.3121  -20.5614 C   0  0  0  0  0
   -4.9002   15.2614  -20.3996 C   0  0  0  0  0
   -1.6335    3.0301  -18.6947 C   0  0  0  0  0
   -1.6022    1.7748  -16.6653 C   0  0  0  0  0
   -5.2520   -1.1867  -18.7718 O   0  0  0  0  0
   -5.8700   -3.8192  -19.7881 O   0  0  0  0  0
   -7.5240   -5.0860  -21.4116 O   0  0  0  0  0
   -5.1385   -6.1776  -21.0552 O   0  0  0  0  0
   -7.0157   -7.9181  -20.5153 O   0  0  0  0  0
   -4.7423   -8.3097  -19.3060 O   0  0  0  0  0
   -3.9372   -6.6090  -17.4415 O   0  0  0  0  0
   -2.7032   -6.4536  -19.7472 O   0  0  0  0  0
   -2.3178   -8.5624  -18.0278 O   0  0  0  0  0
   -6.4729   -6.2726  -18.5688 O   0  0  0  0  0
   -5.4918   -3.8809  -22.5239 O   0  0  0  0  0
   -8.7217   -1.0585  -18.1744 O   0  0  0  0  0
   -7.3088    0.6083  -16.7876 O   0  0  0  0  0
   -5.4896    7.4180  -16.7067 O   0  0  0  0  0
  -19.6690   23.1306  -19.8808 O   0  0  0  0  0
  -19.4743   22.9230  -17.4392 O   0  0  0  0  0
  -18.3840   24.9748  -18.5878 O   0  0  0  0  0
   -1.9708   15.9562  -19.6812 O   0  0  0  0  0
   -1.2941   13.6959  -20.3274 O   0  0  0  0  0
   -1.8832   15.3826  -22.2193 O   0  0  0  0  0
   -6.0623   -4.7534  -21.1915 P   0  0  0  0  0
   -5.8688   -7.1687  -19.8762 P   0  0  0  0  0
   -3.4525   -7.4498  -18.6025 P   0  0  0  0  0
  -18.7680   23.3431  -18.6973 S   0  0  0  0  0
   -2.2085   14.8409  -20.6615 S   0  0  0  0  0
  1 15  1  0  0  0
  4 24  1  0  0  0
  5 30  1  0  0  0
  6 37  1  0  0  0
 10  1  1  0  0  0
 10 11  1  0  0  0
 10 59  1  0  0  0
 11 12  1  0  0  0
 11 71  1  0  0  0
 12 13  1  0  0  0
 12 70  1  0  0  0
 13 59  1  0  0  0
 13 14  1  0  0  0
 14 60  1  0  0  0
 15  8  1  0  0  0
 16  2  1  0  0  0
 16 57  1  0  0  0
 17  3  1  0  0  0
 17  1  1  0  0  0
 18  3  1  0  0  0
 18 19  1  0  0  0
 19 20  1  0  0  0
 20 21  1  0  0  0
 21 22  1  0  0  0
 22 23  1  0  0  0
 23  4  1  0  0  0
 25 24  1  0  0  0
 25 26  1  0  0  0
 26 27  1  0  0  0
 27 28  1  0  0  0
 28 29  1  0  0  0
 29  5  1  0  0  0
 31 32  1  0  0  0
 33 34  1  0  0  0
 35 36  1  0  0  0
 38 39  1  0  0  0
 40 41  1  0  0  0
 42 37  1  0  0  0
 43 42  1  0  0  0
 43 44  1  0  0  0
 43 45  1  0  0  0
 43 36  1  0  0  0
 46  6  1  0  0  0
 46 47  1  0  0  0
 48 30  1  0  0  0
 48 49  1  0  0  0
 48 50  1  0  0  0
 48 51  1  0  0  0
 52 53  1  0  0  0
 52  5  1  0  0  0
 54 55  1  0  0  0
 56 51  1  0  0  0
 57  9  1  0  0  0
 58  7  1  0  0  0
 79 60  1  0  0  0
 79 62  1  0  0  0
 79 69  1  0  0  0
 80 62  1  0  0  0
 80 64  1  0  0  0
 80 68  1  0  0  0
 81 64  1  0  0  0
 81 66  1  0  0  0
 81 67  1  0  0  0
 82 40  1  0  0  0
 82 75  1  0  0  0
 83 55  1  0  0  0
 83 78  1  0  0  0
 15 16  2  0  0  0
 17  2  2  0  0  0
 24 72  2  0  0  0
 30 31  2  0  0  0
 32 33  2  0  0  0
 34 35  2  0  0  0
 36  6  2  0  0  0
 37 38  2  0  0  0
 39 40  2  0  0  0
 41 42  2  0  0  0
 51 52  2  0  0  0
 53 54  2  0  0  0
 55 56  2  0  0  0
 57  7  2  0  0  0
 58  8  2  0  0  0
 79 61  2  0  0  0
 80 63  2  0  0  0
 81 65  2  0  0  0
 82 73  2  0  0  0
 82 74  2  0  0  0
 83 76  2  0  0  0
 83 77  2  0  0  0
M  CHG  2   6   1  75  -1
M  END
> <rmsd>
0.714319646

$$$$
CHEMBL3747704


 60 65  0  0  0  0  0  0  0  0999 V2000
   -4.1080   -9.6732  -19.3007 P   0  0  0  0  0
   -4.1533   -7.3224  -17.8722 P   0  0  0  0  0
   -3.8608   -4.8888  -19.5903 P   0  0  0  0  0
   -6.4531   -4.9039  -20.5899 P   0  0  0  0  0
   -2.6307   -9.6522  -19.6326 O   0  0  0  0  0
   -4.7115   -8.0809  -19.2927 O   0  0  0  0  0
   -4.9078   -7.8568  -16.6755 O   0  0  0  0  0
   -3.7940   -3.3797  -19.5488 O   0  0  0  0  0
   -4.8440   -5.3920  -20.8883 O   0  0  0  0  0
   -7.1317   -4.7420  -21.9304 O   0  0  0  0  0
   -6.5256   -3.3929  -19.7994 O   0  0  0  0  0
   -5.6294   -2.0987  -17.4949 O   0  0  0  0  0
   -7.3248    0.4001  -16.4485 O   0  0  0  0  0
   -9.0140   -1.1147  -17.7423 O   0  0  0  0  0
   -2.2958   -5.4739  -19.8528 O   0  0  0  0  0
   -2.4922   -7.5808  -17.6539 O   0  0  0  0  0
   -4.3722  -10.4227  -17.7986 O   0  0  0  0  0
   -5.6625  -13.0173  -17.8224 O   0  0  0  0  0
   -2.9554  -13.9333  -15.7625 O   0  0  0  0  0
   -5.0848  -15.4300  -15.7477 O   0  0  0  0  0
   -4.4625   -5.5331  -17.9944 C   0  0  0  0  0
   -7.1743   -3.5954  -18.5753 C   0  0  0  0  0
   -6.9943   -2.3926  -17.6606 C   0  0  0  0  0
   -5.5016   -0.6937  -17.4959 C   0  0  0  0  0
   -3.3786    0.2795  -18.4017 C   0  0  0  0  0
   -1.4972    1.1508  -17.3314 C   0  0  0  0  0
   -1.5526    1.0246  -19.7151 C   0  0  0  0  0
   -2.8217    0.4718  -19.6165 C   0  0  0  0  0
   -4.7273   -0.4231  -19.8940 C   0  0  0  0  0
   -1.3061    3.2721  -15.8085 C   0  0  0  0  0
   -0.4652    4.1906  -16.6752 C   0  0  0  0  0
   -6.8582   -0.0434  -17.6896 C   0  0  0  0  0
   -7.6965   -1.1769  -18.2098 C   0  0  0  0  0
   -3.6989  -11.6443  -17.8592 C   0  0  0  0  0
   -4.4875  -12.7026  -17.1120 C   0  0  0  0  0
   -5.8380  -14.4179  -17.7557 C   0  0  0  0  0
   -5.8546  -14.3390  -20.2926 C   0  0  0  0  0
   -6.3179  -16.3545  -20.7766 C   0  0  0  0  0
   -6.2656  -16.2432  -19.4319 C   0  0  0  0  0
   -6.7657  -18.5070  -19.1640 C   0  0  0  0  0
   -6.6033  -17.5820  -21.3585 C   0  0  0  0  0
   -8.8482  -19.6237  -18.0406 C   0  0  0  0  0
   -9.1573  -18.6178  -16.9478 C   0  0  0  0  0
   -4.6682  -15.0553  -17.0294 C   0  0  0  0  0
   -3.6529  -13.9476  -16.9736 C   0  0  0  0  0
   -7.4547   -6.4397  -19.5857 S   0  0  0  0  0
   -0.6161    1.5901  -15.8380 S   0  0  0  0  0
   -5.1138  -10.7307  -20.7813 S   0  0  0  0  0
   -7.0568  -19.9256  -18.1142 S   0  0  0  0  0
   -4.5809   -0.2823  -18.5497 N   0  0  0  0  0
   -2.7474    0.6005  -17.2458 N   0  0  0  0  0
   -0.9095    1.3554  -18.5556 N   0  0  0  0  0
   -0.9294    1.2351  -20.9772 N   0  0  0  0  0
   -3.6481    0.0397  -20.5879 N   0  0  0  0  0
   -5.9699  -14.9811  -19.0994 N   0  0  0  0  0
   -6.0626  -15.1671  -21.3572 N   0  0  0  0  0
   -6.4819  -17.2920  -18.6011 N   0  0  0  0  0
   -6.8223  -18.6451  -20.5291 N   0  0  0  0  0
   -6.6648  -17.7382  -22.7711 N   0  0  0  0  0
   -3.6474   -4.6953  -16.6495 Cl  0  0  0  0  0
  1  6  1  0  0  0
  1 48  1  0  0  0
  1 17  1  0  0  0
  2  6  1  0  0  0
  2 21  1  0  0  0
  2 16  1  0  0  0
  3  9  1  0  0  0
  3 15  1  0  0  0
  4  9  1  0  0  0
  4 46  1  0  0  0
  4 11  1  0  0  0
 21  3  1  0  0  0
 21 60  1  0  0  0
 22 11  1  0  0  0
 23 22  1  0  0  0
 23 12  1  0  0  0
 24 12  1  0  0  0
 24 50  1  0  0  0
 24 32  1  0  0  0
 26 51  1  0  0  0
 26 47  1  0  0  0
 27 52  1  0  0  0
 27 53  1  0  0  0
 28 54  1  0  0  0
 28 25  1  0  0  0
 29 50  1  0  0  0
 30 47  1  0  0  0
 30 31  1  0  0  0
 32 13  1  0  0  0
 32 33  1  0  0  0
 33 14  1  0  0  0
 33 23  1  0  0  0
 34 17  1  0  0  0
 35 34  1  0  0  0
 35 18  1  0  0  0
 36 18  1  0  0  0
 36 55  1  0  0  0
 36 44  1  0  0  0
 38 56  1  0  0  0
 39 57  1  0  0  0
 39 55  1  0  0  0
 40 58  1  0  0  0
 40 49  1  0  0  0
 41 59  1  0  0  0
 41 38  1  0  0  0
 42 49  1  0  0  0
 42 43  1  0  0  0
 44 45  1  0  0  0
 44 20  1  0  0  0
 45 19  1  0  0  0
 45 35  1  0  0  0
 50 25  1  0  0  0
 55 37  1  0  0  0
  1  5  2  0  0  0
  2  7  2  0  0  0
  3  8  2  0  0  0
  4 10  2  0  0  0
 25 51  2  0  0  0
 26 52  2  0  0  0
 27 28  2  0  0  0
 29 54  2  0  0  0
 37 56  2  0  0  0
 38 39  2  0  0  0
 40 57  2  0  0  0
 41 58  2  0  0  0
M  CHG  4  46  -1  15  -1  16  -1  48  -1
M  END
> <rmsd>
0.615032852

$$$$
CHEMBL285263 PubChem-44283240 PubChem-91935502


 52 58  0  0  0  0  0  0  0  0999 V2000
   -2.4968   -1.6688  -21.7061 C   0  0  0  0  0
   -2.7981   -2.9280  -20.9041 C   0  0  0  0  0
   -1.6822   -3.9729  -21.0708 C   0  0  0  0  0
   -1.5050   -4.4029  -22.5389 C   0  0  0  0  0
   -2.5181   -5.3938  -23.0344 C   0  0  0  0  0
   -3.8226   -5.1345  -22.9893 C   0  0  0  0  0
   -4.8022   -6.1240  -23.4480 C   0  0  0  0  0
   -6.5946   -6.9871  -24.1170 C   0  0  0  0  0
   -7.8902   -7.2594  -24.5418 C   0  0  0  0  0
   -8.1631   -8.5675  -24.9849 C   0  0  0  0  0
   -7.1449   -9.5538  -24.9802 C   0  0  0  0  0
   -5.8394   -9.2382  -24.5459 C   0  0  0  0  0
   -5.6101   -7.9297  -24.1366 C   0  0  0  0  0
   -1.7553   -5.1410  -20.1189 C   0  0  0  0  0
   -0.6112   -5.4807  -19.3559 C   0  0  0  0  0
   -0.6136   -6.6108  -18.5163 C   0  0  0  0  0
   -1.7752   -7.3717  -18.4745 C   0  0  0  0  0
   -2.8897   -7.0348  -19.1741 C   0  0  0  0  0
   -2.9283   -5.9252  -20.0097 C   0  0  0  0  0
   -3.3617   -8.9407  -18.0207 C   0  0  0  0  0
   -1.9592   -2.0884  -18.6534 C   0  0  0  0  0
   -2.1273   -0.6194  -18.4124 C   0  0  0  0  0
   -3.1447   -0.1668  -17.5665 C   0  0  0  0  0
   -3.3589    1.2007  -17.3895 C   0  0  0  0  0
   -2.5471    2.1254  -18.0533 C   0  0  0  0  0
   -2.7635    3.4928  -17.8850 C   0  0  0  0  0
   -1.9423    4.4141  -18.5447 C   0  0  0  0  0
   -0.9062    3.9668  -19.3731 C   0  0  0  0  0
   -0.6881    2.5964  -19.5501 C   0  0  0  0  0
   -1.5085    1.6711  -18.8993 C   0  0  0  0  0
   -1.3112    0.2981  -19.0829 C   0  0  0  0  0
   -4.3664   -2.7221  -18.9781 C   0  0  0  0  0
   -5.5023   -2.0800  -19.7161 C   0  0  0  0  0
   -7.3595   -0.9487  -19.2715 C   0  0  0  0  0
   -8.0661   -0.3848  -18.0731 C   0  0  0  0  0
   -7.6701   -0.1056  -20.4891 C   0  0  0  0  0
   -6.6866   -2.9964  -19.8736 C   0  0  0  0  0
   -6.8492   -3.4621  -21.2933 C   0  0  0  0  0
   -6.1046   -5.8155  -23.6687 N   0  0  0  0  0
   -3.0412   -2.5930  -19.5003 N   0  0  0  0  0
   -4.5028   -7.3856  -23.7055 O   0  0  0  0  0
   -3.8879   -7.9555  -18.9219 O   0  0  0  0  0
   -2.0107   -8.5271  -17.7574 O   0  0  0  0  0
   -4.5476   -3.2606  -17.8536 O   0  0  0  0  0
   -5.9676   -0.9593  -19.0254 O   0  0  0  0  0
   -9.3209   -0.2440  -18.0853 O   0  0  0  0  0
   -7.3563   -0.0407  -16.9253 O   0  0  0  0  0
   -6.7397    0.3953  -21.1758 O   0  0  0  0  0
   -8.9850    0.0435  -20.9163 O   0  0  0  0  0
   -7.8142   -2.2657  -19.4907 O   0  0  0  0  0
   -6.0765   -3.0589  -22.2076 O   0  0  0  0  0
   -7.9154   -4.2930  -21.6221 O   0  0  0  0  0
  2  1  1  0  0  0
  2  3  1  0  0  0
  2 40  1  0  0  0
  3  4  1  0  0  0
  3 14  1  0  0  0
  4  5  1  0  0  0
  6  7  1  0  0  0
  7 41  1  0  0  0
  8 39  1  0  0  0
  9 10  1  0  0  0
 11 12  1  0  0  0
 13 41  1  0  0  0
 13  8  1  0  0  0
 15 16  1  0  0  0
 17 18  1  0  0  0
 17 43  1  0  0  0
 18 42  1  0  0  0
 19 14  1  0  0  0
 20 42  1  0  0  0
 20 43  1  0  0  0
 21 40  1  0  0  0
 21 22  1  0  0  0
 23 24  1  0  0  0
 25 26  1  0  0  0
 27 28  1  0  0  0
 29 30  1  0  0  0
 30 25  1  0  0  0
 31 22  1  0  0  0
 33 32  1  0  0  0
 33 45  1  0  0  0
 34 45  1  0  0  0
 34 35  1  0  0  0
 34 36  1  0  0  0
 34 50  1  0  0  0
 35 47  1  0  0  0
 36 49  1  0  0  0
 37 50  1  0  0  0
 37 38  1  0  0  0
 37 33  1  0  0  0
 38 52  1  0  0  0
 40 32  1  0  0  0
  5  6  2  0  0  0
  7 39  2  0  0  0
  8  9  2  0  0  0
 10 11  2  0  0  0
 12 13  2  0  0  0
 14 15  2  0  0  0
 16 17  2  0  0  0
 18 19  2  0  0  0
 22 23  2  0  0  0
 24 25  2  0  0  0
 26 27  2  0  0  0
 28 29  2  0  0  0
 30 31  2  0  0  0
 32 44  2  0  0  0
 35 46  2  0  0  0
 36 48  2  0  0  0
 38 51  2  0  0  0
M  CHG  3  47  -1  49  -1  52  -1
M  END
> <rmsd>
0.73121798

$$$$
CHEMBL297039 PubChem-10439267


 48 52  0  0  0  0  0  0  0  0999 V2000
   -5.2914  -13.3205  -19.3662 C   0  0  0  0  0
   -4.9978  -12.9024  -17.9358 C   0  0  0  0  0
   -4.5149  -10.5590  -18.3288 C   0  0  0  0  0
   -3.6860   -9.4285  -18.3152 C   0  0  0  0  0
   -4.2425   -8.1369  -18.7902 C   0  0  0  0  0
   -3.8436   -5.6288  -19.1784 C   0  0  0  0  0
   -2.9657   -4.5629  -18.9708 C   0  0  0  0  0
   -3.2994   -3.2783  -19.4019 C   0  0  0  0  0
   -4.5228   -3.0388  -20.0465 C   0  0  0  0  0
   -5.4279   -4.1054  -20.2360 C   0  0  0  0  0
   -5.0717   -5.3925  -19.8113 C   0  0  0  0  0
   -6.7509   -3.8924  -20.8553 C   0  0  0  0  0
   -8.6086   -2.2646  -21.4415 C   0  0  0  0  0
   -9.6924   -1.7261  -20.5084 C   0  0  0  0  0
   -9.1639   -0.7775  -19.4794 C   0  0  0  0  0
   -7.7468    1.2881  -18.9366 C   0  0  0  0  0
   -8.8078    2.1018  -18.1982 C   0  0  0  0  0
   -9.4673    3.1062  -19.1281 C   0  0  0  0  0
   -6.8078    0.5751  -17.9971 C   0  0  0  0  0
   -4.9702    0.4928  -19.7406 C   0  0  0  0  0
   -4.2472    1.8415  -19.6709 C   0  0  0  0  0
   -3.0588    1.8398  -18.7584 C   0  0  0  0  0
   -3.2220    1.7619  -17.3686 C   0  0  0  0  0
   -2.1049    1.7843  -16.5280 C   0  0  0  0  0
   -0.8224    1.8930  -17.0737 C   0  0  0  0  0
   -0.6576    1.9831  -18.4594 C   0  0  0  0  0
   -1.7750    1.9599  -19.3002 C   0  0  0  0  0
   -4.0595   -0.6078  -20.2614 C   0  0  0  0  0
   -2.3608   -9.5735  -17.8505 C   0  0  0  0  0
   -1.9154  -10.8296  -17.4110 C   0  0  0  0  0
   -0.6112  -11.0168  -16.9349 C   0  0  0  0  0
   -0.1962  -12.2778  -16.5075 C   0  0  0  0  0
   -1.0933  -13.3454  -16.5585 C   0  0  0  0  0
   -0.6644  -14.6953  -16.1088 C   0  0  0  0  0
   -2.7945  -11.9342  -17.4467 C   0  0  0  0  0
   -4.0692  -11.7761  -17.9119 N   0  0  0  0  0
   -3.4578   -6.9357  -18.7316 N   0  0  0  0  0
   -7.4127   -2.6364  -20.7004 N   0  0  0  0  0
   -8.3657    0.3472  -19.8717 N   0  0  0  0  0
   -8.5381    4.1785  -19.4393 N   0  0  0  0  0
   -5.5279    0.1255  -18.4456 N   0  0  0  0  0
   -2.3586  -13.1538  -17.0193 N   0  0  0  0  0
   -5.4241   -8.0993  -19.2326 O   0  0  0  0  0
   -7.3080   -4.8256  -21.4951 O   0  0  0  0  0
   -9.4160   -0.9930  -18.2644 O   0  0  0  0  0
   -7.1602    0.3259  -16.8130 O   0  0  0  0  0
   -4.8347   -1.7660  -20.5383 O   0  0  0  0  0
   -1.5724   -8.5880  -17.8276 O   0  0  0  0  0
  1  2  1  0  0  0
  2 36  1  0  0  0
  4  5  1  0  0  0
  4 29  1  0  0  0
  5 37  1  0  0  0
  7  8  1  0  0  0
  9 10  1  0  0  0
  9 47  1  0  0  0
 10 12  1  0  0  0
 11  6  1  0  0  0
 12 38  1  0  0  0
 13 38  1  0  0  0
 13 14  1  0  0  0
 14 15  1  0  0  0
 15 39  1  0  0  0
 16 39  1  0  0  0
 16 17  1  0  0  0
 16 19  1  0  0  0
 17 18  1  0  0  0
 18 40  1  0  0  0
 19 41  1  0  0  0
 20 41  1  0  0  0
 20 21  1  0  0  0
 20 28  1  0  0  0
 21 22  1  0  0  0
 23 24  1  0  0  0
 25 26  1  0  0  0
 27 22  1  0  0  0
 28 47  1  0  0  0
 29 30  1  0  0  0
 31 32  1  0  0  0
 33 42  1  0  0  0
 34 33  1  0  0  0
 35 36  1  0  0  0
 35 30  1  0  0  0
 36  3  1  0  0  0
 37  6  1  0  0  0
  3  4  2  0  0  0
  5 43  2  0  0  0
  6  7  2  0  0  0
  8  9  2  0  0  0
 10 11  2  0  0  0
 12 44  2  0  0  0
 15 45  2  0  0  0
 19 46  2  0  0  0
 22 23  2  0  0  0
 24 25  2  0  0  0
 26 27  2  0  0  0
 29 48  2  0  0  0
 30 31  2  0  0  0
 32 33  2  0  0  0
 35 42  2  0  0  0
M  END
> <rmsd>
0.777114332

$$$$
CHEMBL261902 PubChem-44413877


 93104  0  0  0  0  0  0  0  0999 V2000
    7.6820    5.6973   -5.8117 N   0  0  0  0  0
    5.6965    5.7565   -7.1248 N   0  0  0  0  0
    7.7109    6.4274   -3.5021 N   0  0  0  0  0
    4.8011    6.9780   -3.9611 N   0  0  0  0  0
    3.7679    6.6179   -5.9468 N   0  0  0  0  0
   -0.5740    3.3927  -10.8308 N   0  0  0  0  0
   -2.9527    3.5319  -11.2387 N   0  0  0  0  0
   -3.6082    5.4842  -12.4355 N   0  0  0  0  0
   -0.0155    5.3601  -11.7952 N   0  0  0  0  0
   -2.0039    7.1747  -13.1017 N   0  0  0  0  0
   -4.5527    2.4204  -16.9773 N   0  0  0  0  0
   -2.7723    0.7835  -16.8428 N   0  0  0  0  0
   -1.2892    0.8218  -18.7024 N   0  0  0  0  0
   -3.9666    3.2966  -18.9764 N   0  0  0  0  0
   -1.5852    2.3757  -20.5477 N   0  0  0  0  0
   -6.9022   -5.3262  -19.7200 N   0  0  0  0  0
   -5.8163   -3.2469  -20.3253 N   0  0  0  0  0
   -5.6313   -2.9093  -22.6738 N   0  0  0  0  0
   -7.2744   -6.0669  -21.8248 N   0  0  0  0  0
   -6.4705   -4.5271  -24.2701 N   0  0  0  0  0
    7.0311    5.4740   -7.0002 C   0  0  0  0  0
    5.0525    6.2615   -6.0427 C   0  0  0  0  0
    5.6695    6.4775   -4.8623 C   0  0  0  0  0
    7.0208    6.1942   -4.7262 C   0  0  0  0  0
    3.6307    7.0505   -4.6633 C   0  0  0  0  0
    2.7439    6.5338   -6.9777 C   0  0  0  0  0
    1.7758    5.4069   -6.6900 C   0  0  0  0  0
    2.2331    1.4304   -8.0119 C   0  0  0  0  0
    0.9981    1.0835   -8.8209 C   0  0  0  0  0
    1.4223    0.6390  -10.1966 C   0  0  0  0  0
    0.3204    1.1423  -11.0922 C   0  0  0  0  0
   -0.4670    2.0871  -10.1979 C   0  0  0  0  0
   -1.6739    3.9839  -11.3019 C   0  0  0  0  0
   -3.9262    4.2952  -11.8202 C   0  0  0  0  0
   -2.3234    5.9423  -12.4636 C   0  0  0  0  0
   -1.3407    5.1528  -11.8808 C   0  0  0  0  0
    0.4325    4.2480  -11.1469 C   0  0  0  0  0
   -3.2971    0.5665  -13.6697 C   0  0  0  0  0
   -4.6064    1.3522  -13.7418 C   0  0  0  0  0
   -5.7756    0.4978  -14.2154 C   0  0  0  0  0
   -5.8384    0.7930  -15.6772 C   0  0  0  0  0
   -5.2873    2.2010  -15.7399 C   0  0  0  0  0
   -3.4612    1.7884  -17.4349 C   0  0  0  0  0
   -1.6692    0.2998  -17.4890 C   0  0  0  0  0
   -1.9902    1.8391  -19.2924 C   0  0  0  0  0
   -3.1083    2.3171  -18.6251 C   0  0  0  0  0
   -4.8449    3.3350  -17.9318 C   0  0  0  0  0
   -7.0351   -2.3133  -16.3426 C   0  0  0  0  0
   -6.9553   -3.8107  -16.5847 C   0  0  0  0  0
   -5.5186   -4.3004  -16.5743 C   0  0  0  0  0
   -5.4465   -5.2254  -17.7649 C   0  0  0  0  0
   -6.8751   -5.2798  -18.2652 C   0  0  0  0  0
   -6.4350   -4.4268  -20.5940 C   0  0  0  0  0
   -5.4157   -2.4811  -21.3880 C   0  0  0  0  0
   -6.2503   -4.1013  -22.9306 C   0  0  0  0  0
   -6.6581   -4.8683  -21.8489 C   0  0  0  0  0
   -7.4139   -6.3188  -20.4913 C   0  0  0  0  0
    0.4621    5.9220   -7.2080 C   0  0  0  0  0
    0.8096    7.3394   -7.6604 C   0  0  0  0  0
   -0.3188    8.3338   -7.4009 C   0  0  0  0  0
    2.1562    4.2574   -7.3822 O   0  0  0  0  0
    4.0285    2.9730   -6.0614 O   0  0  0  0  0
    1.8881    1.5833   -6.6679 O   0  0  0  0  0
    0.1718    2.2155   -8.9517 O   0  0  0  0  0
   -0.5063    0.0966  -11.5298 O   0  0  0  0  0
    0.2714    1.1442  -13.8419 O   0  0  0  0  0
   -2.2642    1.3900  -13.2307 O   0  0  0  0  0
   -4.4505    2.4406  -14.6288 O   0  0  0  0  0
   -7.1601    0.7680  -16.1273 O   0  0  0  0  0
   -6.5089    0.6088  -18.6707 O   0  0  0  0  0
   -6.3011   -1.6192  -17.3098 O   0  0  0  0  0
   -7.5521   -4.1385  -17.8134 O   0  0  0  0  0
   -5.0076   -6.5058  -17.4077 O   0  0  0  0  0
   -3.1380   -5.7653  -19.1515 O   0  0  0  0  0
   -2.6864   -7.9418  -17.7727 O   0  0  0  0  0
   -4.5688   -7.8585  -19.7783 O   0  0  0  0  0
   -5.2677   -4.9671  -15.3720 O   0  0  0  0  0
   -8.7522   -0.5168  -17.9829 O   0  0  0  0  0
   -5.5695   -0.8641  -13.9985 O   0  0  0  0  0
   -1.1043   -1.0571  -13.9659 O   0  0  0  0  0
    1.5526   -0.7525  -10.2280 O   0  0  0  0  0
    1.8614    3.4932   -4.6918 O   0  0  0  0  0
   -0.4488    5.9301   -6.1458 O   0  0  0  0  0
    2.0063    7.7238   -7.0370 O   0  0  0  0  0
    0.1693    9.6443   -7.3555 O   0  0  0  0  0
   -2.0584   10.6187   -8.3456 O   0  0  0  0  0
   -2.0889   10.0471   -5.7825 O   0  0  0  0  0
   -0.6875   12.2093   -6.7740 O   0  0  0  0  0
    2.5243    3.0852   -6.1998 P   0  0  0  0  0
   -0.8708    0.4176  -13.1622 P   0  0  0  0  0
   -7.1541   -0.1688  -17.5448 P   0  0  0  0  0
   -3.8305   -6.9683  -18.5457 P   0  0  0  0  0
   -1.1930   10.6248   -7.1027 P   0  0  0  0  0
  5 22  1  0  0  0
  6 33  1  0  0  0
 11 43  1  0  0  0
 16 53  1  0  0  0
 21  2  1  0  0  0
 22 23  1  0  0  0
 23  4  1  0  0  0
 24  3  1  0  0  0
 24  1  1  0  0  0
 25  5  1  0  0  0
 26  5  1  0  0  0
 26 27  1  0  0  0
 26 84  1  0  0  0
 27 61  1  0  0  0
 27 58  1  0  0  0
 28 63  1  0  0  0
 29 28  1  0  0  0
 29 30  1  0  0  0
 29 64  1  0  0  0
 30 31  1  0  0  0
 30 81  1  0  0  0
 31 32  1  0  0  0
 31 65  1  0  0  0
 32  6  1  0  0  0
 32 64  1  0  0  0
 34  7  1  0  0  0
 35  8  1  0  0  0
 35 10  1  0  0  0
 36  9  1  0  0  0
 36 33  1  0  0  0
 37  6  1  0  0  0
 38 67  1  0  0  0
 39 38  1  0  0  0
 39 40  1  0  0  0
 39 68  1  0  0  0
 40 41  1  0  0  0
 40 79  1  0  0  0
 41 42  1  0  0  0
 41 69  1  0  0  0
 42 11  1  0  0  0
 42 68  1  0  0  0
 44 12  1  0  0  0
 45 13  1  0  0  0
 45 15  1  0  0  0
 46 14  1  0  0  0
 46 43  1  0  0  0
 47 11  1  0  0  0
 48 71  1  0  0  0
 49 48  1  0  0  0
 49 50  1  0  0  0
 49 72  1  0  0  0
 50 51  1  0  0  0
 50 77  1  0  0  0
 51 52  1  0  0  0
 51 73  1  0  0  0
 52 16  1  0  0  0
 52 72  1  0  0  0
 54 17  1  0  0  0
 55 18  1  0  0  0
 55 20  1  0  0  0
 56 19  1  0  0  0
 56 53  1  0  0  0
 57 16  1  0  0  0
 58 83  1  0  0  0
 58 59  1  0  0  0
 59 84  1  0  0  0
 59 60  1  0  0  0
 60 85  1  0  0  0
 89 61  1  0  0  0
 89 63  1  0  0  0
 89 82  1  0  0  0
 90 65  1  0  0  0
 90 67  1  0  0  0
 90 80  1  0  0  0
 91 69  1  0  0  0
 91 71  1  0  0  0
 91 78  1  0  0  0
 92 73  1  0  0  0
 92 75  1  0  0  0
 92 76  1  0  0  0
 93 85  1  0  0  0
 93 87  1  0  0  0
 93 88  1  0  0  0
 21  1  2  0  0  0
 22  2  2  0  0  0
 23 24  2  0  0  0
 25  4  2  0  0  0
 33  7  2  0  0  0
 34  8  2  0  0  0
 35 36  2  0  0  0
 37  9  2  0  0  0
 43 12  2  0  0  0
 44 13  2  0  0  0
 45 46  2  0  0  0
 47 14  2  0  0  0
 53 17  2  0  0  0
 54 18  2  0  0  0
 55 56  2  0  0  0
 57 19  2  0  0  0
 89 62  2  0  0  0
 90 66  2  0  0  0
 91 70  2  0  0  0
 92 74  2  0  0  0
 93 86  2  0  0  0
M  END
> <rmsd>
0.591524601

$$$$
CHEMBL3311337 PubChem-118707182


 42 46  0  0  0  0  0  0  0  0999 V2000
   -7.0807   -2.6354  -18.2300 C   0  0  0  0  0
   -6.8936   -3.0327  -19.7000 C   0  0  0  0  0
   -6.7339   -4.5142  -19.8518 C   0  0  0  0  0
   -5.2554   -4.8682  -19.9471 C   0  0  0  0  0
   -4.5520   -8.2822  -19.1606 C   0  0  0  0  0
   -4.5023   -6.9486  -18.8055 C   0  0  0  0  0
   -4.0170   -9.4248  -18.3605 C   0  0  0  0  0
   -1.6412   -9.0024  -17.8543 C   0  0  0  0  0
    0.0741   -9.9919  -19.1489 C   0  0  0  0  0
   -0.8771  -10.6195  -19.9510 C   0  0  0  0  0
   -2.2253  -10.4117  -19.6651 C   0  0  0  0  0
   -8.2009   -3.7574  -21.3589 C   0  0  0  0  0
   -7.8469   -3.2732  -22.7533 C   0  0  0  0  0
   -9.6558   -4.1879  -21.3515 C   0  0  0  0  0
   -5.7379    1.1816  -18.6675 C   0  0  0  0  0
   -4.3091    1.5389  -18.4472 C   0  0  0  0  0
   -3.8927    1.9693  -17.1824 C   0  0  0  0  0
   -2.5576    2.3310  -16.9676 C   0  0  0  0  0
   -1.6391    2.2678  -18.0185 C   0  0  0  0  0
   -2.0559    1.8427  -19.2858 C   0  0  0  0  0
   -3.3905    1.4793  -19.5014 C   0  0  0  0  0
   -8.5769    0.1109  -19.7869 C   0  0  0  0  0
   -9.9611    0.3642  -20.2731 C   0  0  0  0  0
  -10.6696    1.4850  -19.8255 C   0  0  0  0  0
  -11.9707    1.7159  -20.2855 C   0  0  0  0  0
  -12.5631    0.8292  -21.1943 C   0  0  0  0  0
  -11.8522   -0.2855  -21.6469 C   0  0  0  0  0
  -10.5517   -0.5185  -21.1872 C   0  0  0  0  0
   -5.0762   -6.3067  -19.8389 N   0  0  0  0  0
   -5.4347   -7.1809  -20.7660 N   0  0  0  0  0
   -5.1212   -8.4068  -20.3762 N   0  0  0  0  0
   -2.5933   -9.6131  -18.6260 N   0  0  0  0  0
   -0.3226   -9.1986  -18.1207 N   0  0  0  0  0
   -1.9723   -8.2584  -16.8919 O   0  0  0  0  0
    1.3015  -10.1584  -19.3776 O   0  0  0  0  0
   -7.3914   -4.8610  -21.0338 O   0  0  0  0  0
   -8.0281   -2.7026  -20.4430 O   0  0  0  0  0
   -6.7650   -0.5057  -16.5894 O   0  0  0  0  0
   -5.8480   -0.1645  -19.0328 O   0  0  0  0  0
   -8.6000   -0.1817  -18.4208 O   0  0  0  0  0
   -6.0535   -3.1741  -17.4457 O   0  0  0  0  0
   -7.0682   -0.8190  -18.0408 P   0  0  0  0  0
  1  2  1  0  0  0
  1 42  1  0  0  0
  1 41  1  0  0  0
  2  3  1  0  0  0
  2 37  1  0  0  0
  3  4  1  0  0  0
  3 36  1  0  0  0
  4 29  1  0  0  0
  5 31  1  0  0  0
  6 29  1  0  0  0
  7  5  1  0  0  0
  7 32  1  0  0  0
  8 33  1  0  0  0
  9 10  1  0  0  0
 11 32  1  0  0  0
 12 36  1  0  0  0
 12 37  1  0  0  0
 12 13  1  0  0  0
 12 14  1  0  0  0
 15 39  1  0  0  0
 15 16  1  0  0  0
 17 18  1  0  0  0
 19 20  1  0  0  0
 21 16  1  0  0  0
 22 40  1  0  0  0
 22 23  1  0  0  0
 24 25  1  0  0  0
 26 27  1  0  0  0
 28 23  1  0  0  0
 29 30  1  0  0  0
 32  8  1  0  0  0
 33  9  1  0  0  0
 42 39  1  0  0  0
 42 40  1  0  0  0
  5  6  2  0  0  0
  8 34  2  0  0  0
  9 35  2  0  0  0
 10 11  2  0  0  0
 16 17  2  0  0  0
 18 19  2  0  0  0
 20 21  2  0  0  0
 23 24  2  0  0  0
 25 26  2  0  0  0
 27 28  2  0  0  0
 30 31  2  0  0  0
 42 38  2  0  0  0
M  END
> <rmsd>
0.849211454

$$$$
CHEMBL2070384 CHEMBL2078807 PubChem-10674594 PubChem-70693088


 42 46  0  0  0  0  0  0  0  0999 V2000
   -6.1919   -0.3923  -15.7560 C   0  0  0  0  0
   -5.6936   -1.5263  -16.5955 C   0  0  0  0  0
   -5.7798   -2.8616  -16.2490 C   0  0  0  0  0
   -5.1840   -3.4886  -17.3329 C   0  0  0  0  0
   -4.7594   -0.1588  -18.4767 C   0  0  0  0  0
   -3.3692    0.2604  -18.1422 C   0  0  0  0  0
   -3.1348    1.0939  -17.0428 C   0  0  0  0  0
   -1.8278    1.4644  -16.7119 C   0  0  0  0  0
   -0.7539    0.9971  -17.4761 C   0  0  0  0  0
   -0.9866    0.1576  -18.5704 C   0  0  0  0  0
   -2.2934   -0.2131  -18.9016 C   0  0  0  0  0
   -4.9707   -4.9576  -17.4583 C   0  0  0  0  0
   -2.7221   -5.2899  -18.0235 C   0  0  0  0  0
   -1.6040   -6.2916  -17.7805 C   0  0  0  0  0
   -2.0897   -8.0672  -19.2347 C   0  0  0  0  0
   -3.4032   -8.7324  -19.6055 C   0  0  0  0  0
   -4.9858   -7.6406  -20.9315 C   0  0  0  0  0
   -5.9398   -6.4963  -21.0204 C   0  0  0  0  0
   -5.6076   -5.1616  -20.8663 C   0  0  0  0  0
   -6.8230   -4.5270  -21.0753 C   0  0  0  0  0
   -7.9782   -7.8447  -21.5666 C   0  0  0  0  0
   -7.9883   -8.1192  -23.0316 C   0  0  0  0  0
   -8.9773   -7.5529  -23.8438 C   0  0  0  0  0
   -8.9703   -7.7885  -25.2221 C   0  0  0  0  0
   -7.9722   -8.5861  -25.7902 C   0  0  0  0  0
   -6.9798   -9.1471  -24.9803 C   0  0  0  0  0
   -6.9862   -8.9117  -23.6020 C   0  0  0  0  0
   -7.0404   -3.0550  -21.0115 C   0  0  0  0  0
   -9.0212   -2.4349  -19.9338 C   0  0  0  0  0
   -9.6190   -1.8044  -18.6909 C   0  0  0  0  0
   -9.5326    0.0284  -17.2271 C   0  0  0  0  0
   -8.4993   -0.3415  -16.1747 C   0  0  0  0  0
   -4.7585   -2.5950  -18.2456 N   0  0  0  0  0
   -5.0867   -1.4006  -17.7906 N   0  0  0  0  0
   -3.6704   -5.3250  -16.9211 N   0  0  0  0  0
   -2.1214   -7.6506  -17.8411 N   0  0  0  0  0
   -4.4786   -7.7551  -19.5757 N   0  0  0  0  0
   -7.8035   -5.4141  -21.3302 N   0  0  0  0  0
   -7.2523   -6.6124  -21.2921 N   0  0  0  0  0
   -7.6057   -2.6905  -19.7236 N   0  0  0  0  0
   -9.1144   -0.4490  -18.5366 N   0  0  0  0  0
   -7.2412    0.3329  -16.4556 N   0  0  0  0  0
  1  2  1  0  0  0
  1 42  1  0  0  0
  3  4  1  0  0  0
  5 34  1  0  0  0
  5  6  1  0  0  0
  7  8  1  0  0  0
  9 10  1  0  0  0
 11  6  1  0  0  0
 12  4  1  0  0  0
 12 35  1  0  0  0
 13 35  1  0  0  0
 13 14  1  0  0  0
 14 36  1  0  0  0
 15 36  1  0  0  0
 15 16  1  0  0  0
 16 37  1  0  0  0
 17 37  1  0  0  0
 17 18  1  0  0  0
 19 20  1  0  0  0
 21 39  1  0  0  0
 21 22  1  0  0  0
 23 24  1  0  0  0
 25 26  1  0  0  0
 27 22  1  0  0  0
 28 20  1  0  0  0
 28 40  1  0  0  0
 29 40  1  0  0  0
 29 30  1  0  0  0
 30 41  1  0  0  0
 31 41  1  0  0  0
 31 32  1  0  0  0
 32 42  1  0  0  0
 34 33  1  0  0  0
 34  2  1  0  0  0
 39 38  1  0  0  0
 39 18  1  0  0  0
  2  3  2  0  0  0
  4 33  2  0  0  0
  6  7  2  0  0  0
  8  9  2  0  0  0
 10 11  2  0  0  0
 18 19  2  0  0  0
 20 38  2  0  0  0
 22 23  2  0  0  0
 24 25  2  0  0  0
 26 27  2  0  0  0
M  END
> <rmsd>
0.501415372

$$$$
CHEMBL4598056 PubChem-155543727


 47 49  0  0  0  0  0  0  0  0999 V2000
    0.6841    3.5282  -15.4056 O   0  0  0  0  0
   -0.6104    1.7018  -14.4083 O   0  0  0  0  0
   -1.2272    2.4680  -16.8501 O   0  0  0  0  0
   -7.6286   -2.3321  -20.5829 O   0  0  0  0  0
   -4.0576   -2.9151  -18.8668 O   0  0  0  0  0
   -2.8102   -5.3750  -18.7142 O   0  0  0  0  0
   -1.3824   -3.2952  -19.4950 O   0  0  0  0  0
   -1.4122   -5.2813  -20.9352 O   0  0  0  0  0
   -0.0496   -5.3848  -18.7251 O   0  0  0  0  0
   -4.2047   -7.6535  -19.6728 O   0  0  0  0  0
   -3.6455   -9.8672  -18.3966 O   0  0  0  0  0
   -4.8818   -8.1382  -17.1799 O   0  0  0  0  0
   -2.3406   -7.7786  -17.5962 O   0  0  0  0  0
   -7.8520   -4.8568  -21.1281 O   0  0  0  0  0
  -10.0466   -5.7074  -22.2856 O   0  0  0  0  0
   -7.9468   -6.8359  -22.8581 O   0  0  0  0  0
   -9.0010   -7.3071  -20.5260 O   0  0  0  0  0
   -6.3846   -0.1815  -19.5037 O   0  0  0  0  0
   -8.6839   -0.6771  -18.3314 O   0  0  0  0  0
   -6.8669    0.2292  -16.9601 O   0  0  0  0  0
   -8.0654    1.8270  -18.6222 O   0  0  0  0  0
   -3.1056    3.0681  -18.7803 O   0  0  0  0  0
   -5.6396    3.3836  -19.3930 O   0  0  0  0  0
   -4.0388    5.0254  -20.2522 O   0  0  0  0  0
   -4.0777    2.6698  -21.3494 O   0  0  0  0  0
    1.1188    1.1138  -16.2615 O   0  0  0  0  0
   -0.0034    2.2216  -15.6810 S   0  0  0  0  0
   -1.4134   -4.7971  -19.5116 S   0  0  0  0  0
   -3.7909   -8.3869  -18.1844 S   0  0  0  0  0
   -8.7281   -6.1881  -21.7493 S   0  0  0  0  0
   -7.5183    0.2693  -18.3125 S   0  0  0  0  0
   -4.2549    3.5715  -19.9423 S   0  0  0  0  0
   -2.0437    1.4445  -17.3436 C   0  0  0  0  0
   -1.9188    0.1247  -16.8877 C   0  0  0  0  0
   -2.7420   -0.8808  -17.3978 C   0  0  0  0  0
   -3.7128   -0.5845  -18.3621 C   0  0  0  0  0
   -4.5427   -1.6772  -18.9200 C   0  0  0  0  0
   -5.8098   -1.4533  -19.4946 C   0  0  0  0  0
   -6.5072   -2.5356  -20.0423 C   0  0  0  0  0
   -5.9511   -3.8299  -19.9820 C   0  0  0  0  0
   -6.6022   -4.9724  -20.5029 C   0  0  0  0  0
   -5.9883   -6.2255  -20.3809 C   0  0  0  0  0
   -4.7524   -6.3723  -19.7565 C   0  0  0  0  0
   -4.0813   -5.2397  -19.2701 C   0  0  0  0  0
   -4.6862   -3.9748  -19.3635 C   0  0  0  0  0
   -3.8285    0.7349  -18.8231 C   0  0  0  0  0
   -3.0013    1.7504  -18.3202 C   0  0  0  0  0
 27  3  1  0  0  0
 27 26  1  0  0  0
 28  6  1  0  0  0
 28  9  1  0  0  0
 29 10  1  0  0  0
 29 13  1  0  0  0
 30 14  1  0  0  0
 30 17  1  0  0  0
 31 18  1  0  0  0
 31 21  1  0  0  0
 32 22  1  0  0  0
 32 25  1  0  0  0
 33  3  1  0  0  0
 34 35  1  0  0  0
 36 37  1  0  0  0
 36 46  1  0  0  0
 37  5  1  0  0  0
 38 39  1  0  0  0
 38 18  1  0  0  0
 39 40  1  0  0  0
 41 42  1  0  0  0
 41 14  1  0  0  0
 43 44  1  0  0  0
 43 10  1  0  0  0
 44  6  1  0  0  0
 45  5  1  0  0  0
 45 40  1  0  0  0
 47 22  1  0  0  0
 47 33  1  0  0  0
 27  1  2  0  0  0
 27  2  2  0  0  0
 28  7  2  0  0  0
 28  8  2  0  0  0
 29 11  2  0  0  0
 29 12  2  0  0  0
 30 15  2  0  0  0
 30 16  2  0  0  0
 31 19  2  0  0  0
 31 20  2  0  0  0
 32 23  2  0  0  0
 32 24  2  0  0  0
 33 34  2  0  0  0
 35 36  2  0  0  0
 37 38  2  0  0  0
 39  4  2  0  0  0
 40 41  2  0  0  0
 42 43  2  0  0  0
 44 45  2  0  0  0
 46 47  2  0  0  0
M  END
> <rmsd>
0.714588702

$$$$
CHEMBL4761524 PubChem-162659047


 57 62  0  0  0  0  0  0  0  0999 V2000
   -7.6356   -7.2043  -20.8371 C   0  0  0  0  0
   -4.5887   -6.1225  -21.6466 C   0  0  0  0  0
   -3.2607   -5.8281  -21.0370 C   0  0  0  0  0
   -1.6818   -8.4812  -20.2826 C   0  0  0  0  0
   -0.3798   -7.9819  -20.1930 C   0  0  0  0  0
    0.6148   -8.4579  -21.0500 C   0  0  0  0  0
    0.3164   -9.4342  -22.0048 C   0  0  0  0  0
   -0.9937   -9.9309  -22.0951 C   0  0  0  0  0
   -1.9883   -9.4542  -21.2380 C   0  0  0  0  0
    1.1220  -10.8797  -23.8448 C   0  0  0  0  0
   -3.8094   -5.2940  -18.6396 C   0  0  0  0  0
   -3.6251   -3.9027  -18.7347 C   0  0  0  0  0
   -4.1481   -3.0528  -17.7989 C   0  0  0  0  0
   -4.3353   -0.5494  -17.3415 C   0  0  0  0  0
   -5.7641   -0.2715  -17.6925 C   0  0  0  0  0
   -8.1203    1.7904  -19.1298 C   0  0  0  0  0
   -7.3765    2.8248  -19.7313 C   0  0  0  0  0
   -5.6101    3.5012  -21.3313 C   0  0  0  0  0
   -7.6331    4.1582  -19.3709 C   0  0  0  0  0
   -8.6139    4.4568  -18.4246 C   0  0  0  0  0
   -9.3487    3.4267  -17.8304 C   0  0  0  0  0
   -9.1020    2.0982  -18.1817 C   0  0  0  0  0
   -8.8715    5.8694  -18.0473 C   0  0  0  0  0
   -3.4565    0.6603  -17.4752 C   0  0  0  0  0
   -3.4452    1.4341  -18.6464 C   0  0  0  0  0
   -2.5932    2.5333  -18.7626 C   0  0  0  0  0
   -1.7711    4.4144  -20.1457 C   0  0  0  0  0
   -1.7434    2.8579  -17.6950 C   0  0  0  0  0
   -1.7493    2.0895  -16.5285 C   0  0  0  0  0
   -2.6035    0.9929  -16.4200 C   0  0  0  0  0
   -3.0350   -1.6623  -19.3111 C   0  0  0  0  0
   -2.8492   -3.1280  -19.7495 C   0  0  0  0  0
   -4.8960   -3.5186  -16.7157 C   0  0  0  0  0
   -5.1035   -4.8992  -16.5991 C   0  0  0  0  0
   -4.5641   -5.7798  -17.5530 C   0  0  0  0  0
   -7.8946   -9.0177  -19.1252 C   0  0  0  0  0
   -7.9564   -9.4658  -20.4452 C   0  0  0  0  0
   -7.8075   -8.4562  -21.4074 C   0  0  0  0  0
   -7.3155   -5.7165  -21.7143 S   0  0  0  0  0
   -2.9282   -7.8568  -19.2169 S   0  0  0  0  0
   -7.8044    0.1041  -19.5256 S   0  0  0  0  0
   -7.6536   -7.3526  -19.1673 S   0  0  0  0  0
   -7.5240   -5.9174  -23.1911 O   0  0  0  0  0
   -8.2531   -4.6494  -21.2267 O   0  0  0  0  0
   -4.7522   -7.1964  -22.2792 O   0  0  0  0  0
   -2.4350   -7.9445  -17.8015 O   0  0  0  0  0
   -4.1849   -8.6761  -19.3526 O   0  0  0  0  0
    1.3341   -9.8890  -22.8479 O   0  0  0  0  0
   -6.5831   -0.0043  -16.7740 O   0  0  0  0  0
   -8.7701   -0.7972  -18.8067 O   0  0  0  0  0
   -7.9665   -0.0988  -21.0049 O   0  0  0  0  0
   -6.3928    2.5131  -20.6759 O   0  0  0  0  0
   -2.6083    3.2804  -19.9432 O   0  0  0  0  0
   -5.6863   -5.2340  -21.4213 N   0  0  0  0  0
   -3.2749   -6.2006  -19.6251 N   0  0  0  0  0
   -3.8191   -1.7060  -18.0775 N   0  0  0  0  0
   -6.1875   -0.2970  -19.0588 N   0  0  0  0  0
  1 42  1  0  0  0
  3  2  1  0  0  0
  3 55  1  0  0  0
  5  6  1  0  0  0
  7  8  1  0  0  0
  7 48  1  0  0  0
  9  4  1  0  0  0
 10 48  1  0  0  0
 11 12  1  0  0  0
 13 56  1  0  0  0
 13 33  1  0  0  0
 14 56  1  0  0  0
 14 15  1  0  0  0
 14 24  1  0  0  0
 15 57  1  0  0  0
 17 52  1  0  0  0
 17 19  1  0  0  0
 18 52  1  0  0  0
 20 21  1  0  0  0
 22 16  1  0  0  0
 23 20  1  0  0  0
 25 26  1  0  0  0
 26 53  1  0  0  0
 27 53  1  0  0  0
 28 29  1  0  0  0
 30 24  1  0  0  0
 31 56  1  0  0  0
 31 32  1  0  0  0
 32 12  1  0  0  0
 34 35  1  0  0  0
 36 42  1  0  0  0
 37 38  1  0  0  0
 39  1  1  0  0  0
 39 54  1  0  0  0
 40 55  1  0  0  0
 40  4  1  0  0  0
 41 57  1  0  0  0
 41 16  1  0  0  0
 54  2  1  0  0  0
 55 11  1  0  0  0
  2 45  2  0  0  0
  4  5  2  0  0  0
  6  7  2  0  0  0
  8  9  2  0  0  0
 12 13  2  0  0  0
 15 49  2  0  0  0
 16 17  2  0  0  0
 19 20  2  0  0  0
 21 22  2  0  0  0
 24 25  2  0  0  0
 26 28  2  0  0  0
 29 30  2  0  0  0
 33 34  2  0  0  0
 35 11  2  0  0  0
 36 37  2  0  0  0
 38  1  2  0  0  0
 39 43  2  0  0  0
 39 44  2  0  0  0
 40 46  2  0  0  0
 40 47  2  0  0  0
 41 50  2  0  0  0
 41 51  2  0  0  0
M  END
> <rmsd>
0.804993272

$$$$
CHEMBL445978 49823152 LN00346848 MCULE-2177392045 MCULE-3961446324 MolPort-000-760-833 PubChem-168849 ZINC000049823152 ZINC49823152


 44 48  0  0  0  0  0  0  0  0999 V2000
    4.4453    0.1040  -21.9413 C   0  0  0  0  0
    2.1972   -0.3652  -21.0179 C   0  0  0  0  0
    1.1656   -1.2889  -20.8272 C   0  0  0  0  0
    0.0076   -0.9250  -20.1346 C   0  0  0  0  0
   -0.1364    0.3695  -19.6217 C   0  0  0  0  0
    0.9011    1.2960  -19.8105 C   0  0  0  0  0
    2.0596    0.9316  -20.5051 C   0  0  0  0  0
   -1.3659    0.7383  -18.8810 C   0  0  0  0  0
   -1.4878    1.9888  -18.2652 C   0  0  0  0  0
   -2.6478    2.2969  -17.5573 C   0  0  0  0  0
   -3.6836    1.3455  -17.4600 C   0  0  0  0  0
   -4.8767    1.5600  -16.7270 C   0  0  0  0  0
   -5.8641    0.5425  -16.6746 C   0  0  0  0  0
   -7.4601    1.8245  -15.2137 C   0  0  0  0  0
   -5.6643   -0.6598  -17.3813 C   0  0  0  0  0
   -7.0374   -2.5069  -18.3948 C   0  0  0  0  0
   -6.4041   -4.1335  -19.8497 C   0  0  0  0  0
   -5.2199   -4.9129  -20.4081 C   0  0  0  0  0
   -4.3234   -6.9002  -20.0231 C   0  0  0  0  0
   -4.0345   -8.1601  -18.1243 C   0  0  0  0  0
   -4.7443   -9.0781  -17.1507 C   0  0  0  0  0
   -2.6611   -8.7535  -18.4923 C   0  0  0  0  0
   -2.2308   -8.3693  -19.9109 C   0  0  0  0  0
   -2.8074   -6.9980  -20.3050 C   0  0  0  0  0
   -7.2289   -3.5585  -21.0141 C   0  0  0  0  0
   -8.3759   -2.7085  -20.4665 C   0  0  0  0  0
   -7.8711   -1.7276  -19.4148 C   0  0  0  0  0
   -4.4859   -0.8598  -18.1018 C   0  0  0  0  0
   -3.4939    0.1155  -18.1335 C   0  0  0  0  0
    3.3394   -0.7618  -21.7273 O   0  0  0  0  0
   -2.7429    3.4270  -17.0140 O   0  0  0  0  0
   -5.0742    2.7669  -16.0630 O   0  0  0  0  0
   -7.0641    0.6721  -15.9515 O   0  0  0  0  0
   -6.6461   -1.6601  -17.3107 O   0  0  0  0  0
   -5.9226   -3.0966  -19.0226 O   0  0  0  0  0
   -4.6282   -5.6851  -19.3985 O   0  0  0  0  0
   -4.8350   -7.9907  -19.2758 O   0  0  0  0  0
   -1.7051   -8.3236  -17.5761 O   0  0  0  0  0
   -2.6594   -9.3561  -20.8059 O   0  0  0  0  0
   -2.5531   -6.7237  -21.6486 O   0  0  0  0  0
   -7.7538   -4.5997  -21.7839 O   0  0  0  0  0
   -8.9964   -2.0137  -21.5070 O   0  0  0  0  0
   -8.9601   -1.1249  -18.7784 O   0  0  0  0  0
   -2.3663   -0.1349  -18.7979 O   0  0  0  0  0
  1 30  1  0  0  0
  2 30  1  0  0  0
  3  4  1  0  0  0
  5  6  1  0  0  0
  5  8  1  0  0  0
  7  2  1  0  0  0
  8 44  1  0  0  0
  9 10  1  0  0  0
 10 11  1  0  0  0
 12 32  1  0  0  0
 12 13  1  0  0  0
 13 33  1  0  0  0
 14 33  1  0  0  0
 15 34  1  0  0  0
 15 28  1  0  0  0
 16 34  1  0  0  0
 16 35  1  0  0  0
 17 35  1  0  0  0
 17 18  1  0  0  0
 17 25  1  0  0  0
 18 36  1  0  0  0
 19 36  1  0  0  0
 19 37  1  0  0  0
 20 37  1  0  0  0
 20 21  1  0  0  0
 20 22  1  0  0  0
 22 38  1  0  0  0
 22 23  1  0  0  0
 23 39  1  0  0  0
 23 24  1  0  0  0
 24 40  1  0  0  0
 24 19  1  0  0  0
 25 41  1  0  0  0
 25 26  1  0  0  0
 26 42  1  0  0  0
 26 27  1  0  0  0
 27 43  1  0  0  0
 27 16  1  0  0  0
 29 44  1  0  0  0
 29 11  1  0  0  0
  2  3  2  0  0  0
  4  5  2  0  0  0
  6  7  2  0  0  0
  8  9  2  0  0  0
 10 31  2  0  0  0
 11 12  2  0  0  0
 13 15  2  0  0  0
 28 29  2  0  0  0
M  END
> <rmsd>
0.56282711

$$$$
CHEMBL2029006


 51 55  0  0  0  0  0  0  0  0999 V2000
   -0.7760   -7.9518  -19.3362 O   0  0  0  0  0
   -0.3032   -9.5733  -17.3618 O   0  0  0  0  0
   -2.6947   -8.2145  -17.5225 O   0  0  0  0  0
   -2.9385   -6.0473  -18.9778 O   0  0  0  0  0
   -4.0212   -8.2172  -19.9828 O   0  0  0  0  0
   -5.1013   -6.9092  -17.7611 O   0  0  0  0  0
   -7.2382   -5.4895  -18.1588 O   0  0  0  0  0
   -5.4793   -5.4829  -20.1547 O   0  0  0  0  0
   -6.0343   -3.8709  -22.1399 O   0  0  0  0  0
   -8.0264   -5.3123  -21.2915 O   0  0  0  0  0
   -7.0435   -3.1906  -19.8224 O   0  0  0  0  0
   -4.7936   -1.3866  -17.6701 O   0  0  0  0  0
   -0.7602    3.1078  -18.5704 O   0  0  0  0  0
   -3.2769    1.1622  -15.3441 O   0  0  0  0  0
   -8.1788   -0.7166  -18.4135 O   0  0  0  0  0
   -7.1178    0.5919  -16.4424 O   0  0  0  0  0
   -2.0794  -10.2254  -19.3636 O   0  0  0  0  0
   -4.0606  -12.3468  -19.9965 O   0  0  0  0  0
   -7.1524  -12.1706  -19.0617 O   0  0  0  0  0
   -5.7860  -10.7142  -17.3934 O   0  0  0  0  0
   -1.4561   -8.9535  -18.4316 P   0  0  0  0  0
   -3.6683   -7.3159  -18.5903 P   0  0  0  0  0
   -6.2423   -6.3550  -18.8989 P   0  0  0  0  0
   -6.6288   -4.4531  -20.8776 P   0  0  0  0  0
   -7.1606   -7.8498  -19.5987 B   0  0  0  0  0
   -5.8307   -2.6230  -19.4275 C   0  0  0  0  0
   -6.0402   -1.7626  -18.1958 C   0  0  0  0  0
   -4.9551   -0.0959  -17.1275 C   0  0  0  0  0
   -3.5744    0.9695  -18.8464 C   0  0  0  0  0
   -2.5099    1.7783  -19.2399 C   0  0  0  0  0
   -1.7273    2.3675  -18.2512 C   0  0  0  0  0
   -3.0504    1.3509  -16.5708 C   0  0  0  0  0
   -6.2833    0.4976  -17.5600 C   0  0  0  0  0
   -6.8024   -0.5106  -18.5464 C   0  0  0  0  0
   -2.7981  -11.0122  -18.4648 C   0  0  0  0  0
   -4.1658  -11.3272  -19.0341 C   0  0  0  0  0
   -5.0757  -11.7910  -17.9285 C   0  0  0  0  0
   -5.9763  -12.7808  -18.6101 C   0  0  0  0  0
   -5.1581  -13.2138  -19.8112 C   0  0  0  0  0
   -5.0526  -15.6558  -20.3926 C   0  0  0  0  0
   -3.6690  -16.4054  -18.9694 C   0  0  0  0  0
   -3.8184  -15.0805  -18.7583 C   0  0  0  0  0
   -2.3072  -15.1320  -16.9800 C   0  0  0  0  0
   -2.8098  -17.1423  -18.1667 C   0  0  0  0  0
   -3.8391    0.7654  -17.5230 N   0  0  0  0  0
   -2.0097    2.1435  -16.9418 N   0  0  0  0  0
   -4.6890  -14.5853  -19.6458 N   0  0  0  0  0
   -4.4364  -16.8063  -19.9960 N   0  0  0  0  0
   -3.1562  -14.4152  -17.7778 N   0  0  0  0  0
   -2.1392  -16.4811  -17.1761 N   0  0  0  0  0
   -2.6287  -18.5413  -18.3588 N   0  0  0  0  0
 21  2  1  0  0  0
 21  3  1  0  0  0
 21 17  1  0  0  0
 22  3  1  0  0  0
 22  5  1  0  0  0
 22  6  1  0  0  0
 23  6  1  0  0  0
 23 25  1  0  0  0
 23  8  1  0  0  0
 24  8  1  0  0  0
 24 10  1  0  0  0
 24 11  1  0  0  0
 26 11  1  0  0  0
 27 26  1  0  0  0
 27 12  1  0  0  0
 28 12  1  0  0  0
 28 45  1  0  0  0
 28 33  1  0  0  0
 30 31  1  0  0  0
 31 46  1  0  0  0
 32 45  1  0  0  0
 33 34  1  0  0  0
 33 16  1  0  0  0
 34 15  1  0  0  0
 34 27  1  0  0  0
 35 17  1  0  0  0
 36 35  1  0  0  0
 36 37  1  0  0  0
 36 18  1  0  0  0
 37 38  1  0  0  0
 37 20  1  0  0  0
 38 39  1  0  0  0
 38 19  1  0  0  0
 39 18  1  0  0  0
 39 47  1  0  0  0
 41 48  1  0  0  0
 42 49  1  0  0  0
 42 47  1  0  0  0
 43 50  1  0  0  0
 44 51  1  0  0  0
 44 41  1  0  0  0
 45 29  1  0  0  0
 46 32  1  0  0  0
 47 40  1  0  0  0
 21  1  2  0  0  0
 22  4  2  0  0  0
 23  7  2  0  0  0
 24  9  2  0  0  0
 29 30  2  0  0  0
 31 13  2  0  0  0
 32 14  2  0  0  0
 40 48  2  0  0  0
 41 42  2  0  0  0
 43 49  2  0  0  0
 44 50  2  0  0  0
M  END
> <rmsd>
0.676642001

$$$$
CHEMBL3527518 PubChem-118753341


 37 40  0  0  0  0  0  0  0  0999 V2000
   -4.8834   -6.9995  -19.5541 C   0  0  0  0  0
   -4.3504   -6.1499  -18.5550 C   0  0  0  0  0
   -4.7775   -4.8149  -18.4935 C   0  0  0  0  0
   -5.7173   -4.3117  -19.3996 C   0  0  0  0  0
   -6.2440   -5.1626  -20.3928 C   0  0  0  0  0
   -5.8269   -6.4911  -20.4630 C   0  0  0  0  0
   -7.5837   -3.4004  -21.2442 C   0  0  0  0  0
   -7.0877   -2.5246  -20.2772 C   0  0  0  0  0
   -6.1479   -2.9756  -19.3408 C   0  0  0  0  0
   -5.9862   -0.6983  -18.1094 C   0  0  0  0  0
   -7.3555   -0.5766  -17.5165 C   0  0  0  0  0
   -5.8048    0.1533  -19.3596 C   0  0  0  0  0
   -3.7739    1.6939  -18.7471 C   0  0  0  0  0
   -2.9767    1.8384  -19.8855 C   0  0  0  0  0
   -1.5939    1.6741  -19.7879 C   0  0  0  0  0
   -1.7683    1.2337  -17.4625 C   0  0  0  0  0
   -3.1682    1.3955  -17.5134 C   0  0  0  0  0
   -3.9162    1.2567  -16.3391 C   0  0  0  0  0
   -3.3007    0.9526  -15.1156 C   0  0  0  0  0
   -1.8960    0.7846  -15.0732 C   0  0  0  0  0
   -1.1463    0.9298  -16.2525 C   0  0  0  0  0
    0.1484    0.2981  -13.7564 C   0  0  0  0  0
   -4.1543    0.8214  -13.9108 C   0  0  0  0  0
   -3.3517   -6.6157  -17.5634 C   0  0  0  0  0
   -4.9707   -9.2389  -20.6157 C   0  0  0  0  0
   -7.1565   -4.6900  -21.2822 N   0  0  0  0  0
   -5.6144   -2.0937  -18.3382 N   0  0  0  0  0
   -1.0233    1.3759  -18.5906 N   0  0  0  0  0
   -5.5584    1.0478  -13.9998 N   0  0  0  0  0
   -2.8469   -5.7166  -16.5793 N   0  0  0  0  0
   -8.3826   -0.8094  -18.2068 O   0  0  0  0  0
   -7.4927   -0.2047  -16.1867 O   0  0  0  0  0
   -1.2573    0.4791  -13.8648 O   0  0  0  0  0
   -3.6598    0.5107  -12.7951 O   0  0  0  0  0
   -2.9338   -7.8036  -17.5710 O   0  0  0  0  0
   -4.4737   -8.3362  -19.6366 O   0  0  0  0  0
   -5.5519    1.8986  -18.9112 S   0  0  0  0  0
  1 36  1  0  0  0
  2  3  1  0  0  0
  2 24  1  0  0  0
  4  5  1  0  0  0
  5 26  1  0  0  0
  6  1  1  0  0  0
  7  8  1  0  0  0
  9 27  1  0  0  0
  9  4  1  0  0  0
 10 27  1  0  0  0
 10 11  1  0  0  0
 10 12  1  0  0  0
 11 32  1  0  0  0
 12 37  1  0  0  0
 13 37  1  0  0  0
 14 15  1  0  0  0
 16 28  1  0  0  0
 17 18  1  0  0  0
 17 13  1  0  0  0
 19 20  1  0  0  0
 19 23  1  0  0  0
 20 33  1  0  0  0
 21 16  1  0  0  0
 22 33  1  0  0  0
 23 29  1  0  0  0
 24 30  1  0  0  0
 25 36  1  0  0  0
  1  2  2  0  0  0
  3  4  2  0  0  0
  5  6  2  0  0  0
  7 26  2  0  0  0
  8  9  2  0  0  0
 11 31  2  0  0  0
 13 14  2  0  0  0
 15 28  2  0  0  0
 16 17  2  0  0  0
 18 19  2  0  0  0
 20 21  2  0  0  0
 23 34  2  0  0  0
 24 35  2  0  0  0
M  END
> <rmsd>
0.702908099

$$$$
CHEMBL2042753 PubChem-70688268


 37 39  0  0  0  0  0  0  0  0999 V2000
   -8.9581   -0.5874  -17.8715 O   0  0  0  0  0
   -7.1382   -1.5094  -16.5107 O   0  0  0  0  0
   -6.5014   -0.2020  -18.6967 O   0  0  0  0  0
   -5.3427    2.1592  -17.9580 O   0  0  0  0  0
   -2.9436   -1.0102  -18.4921 O   0  0  0  0  0
   -5.9017   -6.3508  -20.4389 O   0  0  0  0  0
   -8.4859   -6.4079  -19.9454 O   0  0  0  0  0
   -7.7670   -5.9110  -22.2399 O   0  0  0  0  0
   -7.5505   -8.3560  -21.3868 O   0  0  0  0  0
   -3.2845   -5.9075  -19.4181 O   0  0  0  0  0
   -2.2176   -7.9903  -18.2464 O   0  0  0  0  0
   -4.5144   -8.2224  -19.0607 O   0  0  0  0  0
   -4.1062   -6.7906  -16.9266 O   0  0  0  0  0
    0.9373    1.5212  -17.2309 O   0  0  0  0  0
    3.4184    0.6779  -17.1165 O   0  0  0  0  0
    1.6471   -0.9198  -16.5504 O   0  0  0  0  0
    1.9799   -0.2895  -19.0527 O   0  0  0  0  0
   -7.5411    1.0581  -16.4495 O   0  0  0  0  0
   -7.5633   -0.3486  -17.3668 S   0  0  0  0  0
   -7.4708   -6.7212  -21.0092 S   0  0  0  0  0
   -3.5292   -7.2799  -18.4279 S   0  0  0  0  0
    2.0268    0.2214  -17.4526 S   0  0  0  0  0
   -5.1247   -0.0727  -18.5093 C   0  0  0  0  0
   -4.5875    1.1596  -18.1106 C   0  0  0  0  0
   -3.2104    1.2720  -17.8926 C   0  0  0  0  0
   -2.6225    2.4747  -17.4772 C   0  0  0  0  0
   -1.2428    2.5437  -17.2629 C   0  0  0  0  0
   -0.4376    1.4170  -17.4611 C   0  0  0  0  0
   -1.0253    0.2137  -17.8806 C   0  0  0  0  0
   -2.4032    0.1360  -18.0963 C   0  0  0  0  0
   -4.2493   -1.1673  -18.7145 C   0  0  0  0  0
   -4.7154   -2.5079  -19.1564 C   0  0  0  0  0
   -3.8239   -3.5890  -19.1113 C   0  0  0  0  0
   -4.2174   -4.8716  -19.5059 C   0  0  0  0  0
   -5.5214   -5.0818  -19.9917 C   0  0  0  0  0
   -6.4145   -4.0019  -20.0433 C   0  0  0  0  0
   -6.0160   -2.7316  -19.6284 C   0  0  0  0  0
 19  3  1  0  0  0
 19 18  1  0  0  0
 20  6  1  0  0  0
 20  9  1  0  0  0
 21 10  1  0  0  0
 21 13  1  0  0  0
 22 14  1  0  0  0
 22 17  1  0  0  0
 23  3  1  0  0  0
 23 24  1  0  0  0
 24 25  1  0  0  0
 26 27  1  0  0  0
 28 29  1  0  0  0
 28 14  1  0  0  0
 30  5  1  0  0  0
 30 25  1  0  0  0
 31  5  1  0  0  0
 31 32  1  0  0  0
 33 34  1  0  0  0
 34 10  1  0  0  0
 35 36  1  0  0  0
 35  6  1  0  0  0
 37 32  1  0  0  0
 19  1  2  0  0  0
 19  2  2  0  0  0
 20  7  2  0  0  0
 20  8  2  0  0  0
 21 11  2  0  0  0
 21 12  2  0  0  0
 22 15  2  0  0  0
 22 16  2  0  0  0
 24  4  2  0  0  0
 25 26  2  0  0  0
 27 28  2  0  0  0
 29 30  2  0  0  0
 31 23  2  0  0  0
 32 33  2  0  0  0
 34 35  2  0  0  0
 36 37  2  0  0  0
M  END
> <rmsd>
0.727741182

$$$$
CHEMBL1161753


 31 33  0  0  0  0  0  0  0  0999 V2000
   -1.0896    2.8902  -20.3586 N   0  0  0  0  0
   -0.8513    1.6951  -18.2622 N   0  0  0  0  0
   -2.5703    0.2797  -17.4218 N   0  0  0  0  0
   -3.7723    1.5633  -20.4559 N   0  0  0  0  0
   -4.5240    0.1642  -18.8413 N   0  0  0  0  0
   -1.5963    2.0063  -19.3648 C   0  0  0  0  0
   -1.3290    0.8416  -17.2987 C   0  0  0  0  0
   -3.3019    0.5962  -18.5187 C   0  0  0  0  0
   -2.8540    1.4316  -19.4799 C   0  0  0  0  0
   -4.7932    0.7652  -20.0316 C   0  0  0  0  0
   -5.3592   -0.7651  -18.0891 C   0  0  0  0  0
   -5.6128   -2.0264  -18.9008 C   0  0  0  0  0
   -7.1024   -2.2888  -18.8207 C   0  0  0  0  0
   -7.9572   -4.1325  -19.6992 C   0  0  0  0  0
   -7.7269   -0.9321  -18.5926 C   0  0  0  0  0
   -6.7125   -0.1430  -17.7741 C   0  0  0  0  0
   -7.5581   -2.8338  -20.0228 O   0  0  0  0  0
   -7.3814   -5.1172  -22.1533 O   0  0  0  0  0
   -7.4536   -6.9006  -20.2560 O   0  0  0  0  0
   -5.3484   -5.0609  -20.5118 O   0  0  0  0  0
   -5.8023   -5.2528  -17.9103 O   0  0  0  0  0
   -4.8918   -7.4033  -19.1102 O   0  0  0  0  0
   -3.2924   -5.1584  -18.6942 O   0  0  0  0  0
   -2.5584   -7.5948  -17.5564 O   0  0  0  0  0
   -1.2333   -5.2898  -16.8690 O   0  0  0  0  0
   -3.8063   -5.6832  -15.9936 O   0  0  0  0  0
   -8.9495   -1.0584  -17.9291 O   0  0  0  0  0
   -6.9604   -0.2774  -16.4056 O   0  0  0  0  0
   -7.0210   -5.3255  -20.7004 P   0  0  0  0  0
   -4.8708   -5.7128  -19.0119 P   0  0  0  0  0
   -2.7404   -5.9350  -17.2838 P   0  0  0  0  0
  1  6  1  0  0  0
  5  8  1  0  0  0
  7  2  1  0  0  0
  8  3  1  0  0  0
  9  4  1  0  0  0
  9  6  1  0  0  0
 10  5  1  0  0  0
 11  5  1  0  0  0
 11 12  1  0  0  0
 12 13  1  0  0  0
 13 17  1  0  0  0
 13 15  1  0  0  0
 14 17  1  0  0  0
 15 27  1  0  0  0
 15 16  1  0  0  0
 16 28  1  0  0  0
 16 11  1  0  0  0
 29 14  1  0  0  0
 29 19  1  0  0  0
 29 20  1  0  0  0
 30 20  1  0  0  0
 30 22  1  0  0  0
 30 23  1  0  0  0
 31 23  1  0  0  0
 31 24  1  0  0  0
 31 25  1  0  0  0
 31 26  1  0  0  0
  6  2  2  0  0  0
  7  3  2  0  0  0
  8  9  2  0  0  0
 10  4  2  0  0  0
 29 18  2  0  0  0
 30 21  2  0  0  0
M  END
> <rmsd>
0.650031388

$$$$
CHEMBL1092360 PubChem-46883748


 72 79  0  0  0  0  0  0  0  0999 V2000
   -3.1776  -12.0564  -18.1331 C   0  0  0  0  0
   -3.5661  -12.9154  -19.3221 C   0  0  0  0  0
   -4.7042  -12.2720  -20.1239 C   0  0  0  0  0
   -6.9945  -11.8958  -20.4827 C   0  0  0  0  0
   -6.3000  -12.2972  -18.2833 C   0  0  0  0  0
   -6.3344  -14.0818  -19.9540 C   0  0  0  0  0
   -5.7694  -15.0425  -18.9094 C   0  0  0  0  0
   -4.7111  -15.9314  -19.5344 C   0  0  0  0  0
   -4.0976  -18.2278  -18.5240 C   0  0  0  0  0
   -4.1642  -18.9858  -19.7195 C   0  0  0  0  0
   -4.0919  -20.4007  -19.6430 C   0  0  0  0  0
   -3.8791  -20.3191  -17.2833 C   0  0  0  0  0
   -3.9380  -18.9061  -17.2990 C   0  0  0  0  0
   -3.8601  -18.2040  -16.0858 C   0  0  0  0  0
   -3.7246  -18.8861  -14.8730 C   0  0  0  0  0
   -3.6655  -20.2898  -14.8715 C   0  0  0  0  0
   -3.7401  -21.0011  -16.0707 C   0  0  0  0  0
   -3.5448  -18.7566  -12.4086 C   0  0  0  0  0
   -4.1440  -21.1736  -20.8063 C   0  0  0  0  0
   -4.2612  -20.5571  -22.0534 C   0  0  0  0  0
   -4.3262  -19.1641  -22.1420 C   0  0  0  0  0
   -4.2765  -18.3857  -20.9827 C   0  0  0  0  0
   -3.2367   -6.7296  -18.5056 C   0  0  0  0  0
   -4.2130   -6.0437  -17.5593 C   0  0  0  0  0
   -4.2921   -4.5264  -15.9130 C   0  0  0  0  0
   -3.4671   -3.0533  -14.1299 C   0  0  0  0  0
   -1.7666   -1.4524  -14.5196 C   0  0  0  0  0
   -1.6629   -1.8667  -15.8453 C   0  0  0  0  0
   -2.4966   -2.8976  -16.2811 C   0  0  0  0  0
   -5.1946   -4.0016  -17.0151 C   0  0  0  0  0
   -4.8034   -4.8174  -18.2061 C   0  0  0  0  0
   -5.9204   -2.1820  -20.9082 C   0  0  0  0  0
   -5.7378   -0.8167  -20.2261 C   0  0  0  0  0
   -3.7108   -0.5425  -19.2496 C   0  0  0  0  0
   -3.4371    1.8692  -18.5480 C   0  0  0  0  0
   -2.4008    2.6840  -18.2567 C   0  0  0  0  0
   -1.6227    0.7767  -18.7780 C   0  0  0  0  0
   -2.6390    3.9958  -17.8683 C   0  0  0  0  0
   -4.9760    3.5582  -18.0741 C   0  0  0  0  0
   -4.6446   -0.9602  -18.1298 C   0  0  0  0  0
   -6.0047   -0.8215  -18.7309 C   0  0  0  0  0
   -6.0531  -12.6651  -19.6798 N   0  0  0  0  0
   -4.1516  -16.7887  -18.5038 N   0  0  0  0  0
   -3.9576  -21.0193  -18.4420 N   0  0  0  0  0
   -3.3938   -3.4754  -15.4284 N   0  0  0  0  0
   -2.6566   -2.0534  -13.6879 N   0  0  0  0  0
   -0.9292   -0.4089  -14.0337 N   0  0  0  0  0
   -2.9700    0.6588  -18.8809 N   0  0  0  0  0
   -1.2344    2.0270  -18.3903 N   0  0  0  0  0
   -3.9377    4.4088  -17.7817 N   0  0  0  0  0
   -4.7300    2.2695  -18.4656 N   0  0  0  0  0
   -1.5730    4.8831  -17.5499 N   0  0  0  0  0
   -3.6591  -18.1473  -13.6892 O   0  0  0  0  0
   -4.1048   -9.5658  -16.7797 O   0  0  0  0  0
   -2.5455   -7.7545  -17.8483 O   0  0  0  0  0
   -3.5546   -5.6251  -16.3894 O   0  0  0  0  0
   -4.2874   -3.5801  -13.3299 O   0  0  0  0  0
   -5.9345   -5.1380  -18.9623 O   0  0  0  0  0
   -4.6031   -5.5969  -21.1716 O   0  0  0  0  0
   -4.9037   -3.0710  -20.5426 O   0  0  0  0  0
   -4.4364   -0.3251  -20.4413 O   0  0  0  0  0
   -6.8361   -1.8777  -18.3393 O   0  0  0  0  0
   -8.9842   -2.2663  -16.9009 O   0  0  0  0  0
   -7.3846   -0.3889  -16.0570 O   0  0  0  0  0
   -8.9378   -0.0702  -18.3218 O   0  0  0  0  0
   -7.0171   -4.6715  -21.4586 O   0  0  0  0  0
   -4.6044   -9.0260  -19.2915 O   0  0  0  0  0
   -4.3181  -21.5312  -23.5051 Cl  0  0  0  0  0
   -2.0654  -10.7123  -18.6502 S   0  0  0  0  0
   -3.4274   -9.1923  -18.0824 P   0  0  0  0  0
   -5.5882   -4.6335  -20.5496 P   0  0  0  0  0
   -8.0576   -1.1775  -17.3923 P   0  0  0  0  0
  1  2  1  0  0  0
  1 69  1  0  0  0
  2  3  1  0  0  0
  3 42  1  0  0  0
  6  7  1  0  0  0
  7  8  1  0  0  0
  8 43  1  0  0  0
 10 11  1  0  0  0
 11 19  1  0  0  0
 12 44  1  0  0  0
 13 14  1  0  0  0
 13  9  1  0  0  0
 15 16  1  0  0  0
 15 53  1  0  0  0
 17 12  1  0  0  0
 18 53  1  0  0  0
 20 21  1  0  0  0
 20 68  1  0  0  0
 22 10  1  0  0  0
 23 55  1  0  0  0
 24 23  1  0  0  0
 24 56  1  0  0  0
 25 56  1  0  0  0
 25 45  1  0  0  0
 25 30  1  0  0  0
 26 46  1  0  0  0
 27 28  1  0  0  0
 27 47  1  0  0  0
 29 45  1  0  0  0
 30 31  1  0  0  0
 31 58  1  0  0  0
 31 24  1  0  0  0
 32 60  1  0  0  0
 33 32  1  0  0  0
 33 61  1  0  0  0
 34 61  1  0  0  0
 34 48  1  0  0  0
 34 40  1  0  0  0
 35 51  1  0  0  0
 36 49  1  0  0  0
 36 38  1  0  0  0
 37 48  1  0  0  0
 38 52  1  0  0  0
 39 50  1  0  0  0
 40 41  1  0  0  0
 41 62  1  0  0  0
 41 33  1  0  0  0
 42  4  1  0  0  0
 42  5  1  0  0  0
 42  6  1  0  0  0
 43  9  1  0  0  0
 45 26  1  0  0  0
 48 35  1  0  0  0
 70 69  1  0  0  0
 70 55  1  0  0  0
 70 67  1  0  0  0
 71 58  1  0  0  0
 71 60  1  0  0  0
 71 66  1  0  0  0
 72 62  1  0  0  0
 72 64  1  0  0  0
 72 65  1  0  0  0
  9 10  2  0  0  0
 11 44  2  0  0  0
 12 13  2  0  0  0
 14 15  2  0  0  0
 16 17  2  0  0  0
 19 20  2  0  0  0
 21 22  2  0  0  0
 26 57  2  0  0  0
 27 46  2  0  0  0
 28 29  2  0  0  0
 35 36  2  0  0  0
 37 49  2  0  0  0
 38 50  2  0  0  0
 39 51  2  0  0  0
 70 54  2  0  0  0
 71 59  2  0  0  0
 72 63  2  0  0  0
M  CHG  2  42   1  66  -1
M  END
> <rmsd>
0.735560775

$$$$
CHEMBL4203372 PubChem-145977999


 67 74  0  0  0  0  0  0  0  0999 V2000
   -4.8446   -6.6916  -16.7103 C   0  0  0  0  0
   -4.0750   -6.1105  -15.5834 C   0  0  0  0  0
   -3.2686   -6.8997  -14.7440 C   0  0  0  0  0
   -2.5467   -6.3007  -13.7022 C   0  0  0  0  0
   -2.6459   -4.9202  -13.4729 C   0  0  0  0  0
   -3.4734   -4.1281  -14.2929 C   0  0  0  0  0
   -3.6350   -2.6687  -14.0680 C   0  0  0  0  0
   -6.0399   -2.6437  -14.7113 C   0  0  0  0  0
   -6.4954   -2.2991  -16.1360 C   0  0  0  0  0
   -6.8934   -3.5563  -16.9114 C   0  0  0  0  0
   -7.0373   -5.7719  -15.8137 C   0  0  0  0  0
   -6.2448   -6.4961  -16.8242 C   0  0  0  0  0
   -6.9376   -7.0682  -17.8935 C   0  0  0  0  0
   -6.2671   -7.7964  -18.8733 C   0  0  0  0  0
   -4.8834   -7.9655  -18.7914 C   0  0  0  0  0
   -4.1705   -7.4131  -17.7200 C   0  0  0  0  0
   -7.7914   -3.1720  -18.0827 C   0  0  0  0  0
   -7.8870   -4.3476  -19.0815 C   0  0  0  0  0
  -10.2578   -4.3035  -19.6710 C   0  0  0  0  0
   -9.9742   -3.1373  -20.5368 C   0  0  0  0  0
   -8.6746   -3.0123  -21.0602 C   0  0  0  0  0
   -8.3891   -1.9863  -21.9727 C   0  0  0  0  0
   -9.3636   -1.0253  -22.2646 C   0  0  0  0  0
  -10.5701   -1.0162  -21.5519 C   0  0  0  0  0
  -10.8487   -2.0355  -20.6246 C   0  0  0  0  0
  -11.7244   -1.7328  -19.4662 C   0  0  0  0  0
  -11.1439   -1.5083  -18.1877 C   0  0  0  0  0
   -9.6809   -1.5645  -17.9892 C   0  0  0  0  0
  -11.9666   -1.2305  -17.0942 C   0  0  0  0  0
  -13.3526   -1.1586  -17.2518 C   0  0  0  0  0
  -13.9298   -1.3667  -18.5103 C   0  0  0  0  0
  -13.1200   -1.6542  -19.6178 C   0  0  0  0  0
   -7.5668   -3.8899  -20.5208 C   0  0  0  0  0
   -5.4221   -0.2220  -16.9226 C   0  0  0  0  0
   -4.2224    0.4356  -17.4606 C   0  0  0  0  0
   -3.1812   -0.3339  -17.9961 C   0  0  0  0  0
   -2.0193    0.2807  -18.4714 C   0  0  0  0  0
   -1.8897    1.6740  -18.4087 C   0  0  0  0  0
   -2.9281    2.4474  -17.8731 C   0  0  0  0  0
   -4.0875    1.8284  -17.3998 C   0  0  0  0  0
   -4.1573   -4.7379  -15.3465 C   0  0  0  0  0
   -2.6742   -2.0090  -13.5902 O   0  0  0  0  0
   -4.8235   -1.9872  -14.3679 O   0  0  0  0  0
   -7.5469   -4.4925  -16.0547 O   0  0  0  0  0
   -7.3135   -6.3444  -14.7275 O   0  0  0  0  0
   -2.7882   -7.5679  -17.6758 O   0  0  0  0  0
   -4.2138   -8.6809  -19.7779 O   0  0  0  0  0
   -6.9806   -8.3463  -19.9308 O   0  0  0  0  0
   -9.1862   -4.9459  -19.0502 O   0  0  0  0  0
  -11.4293   -4.7313  -19.5076 O   0  0  0  0  0
   -8.9689   -0.5781  -18.3157 O   0  0  0  0  0
   -9.0840   -2.7708  -17.6090 O   0  0  0  0  0
  -13.7054   -1.8696  -20.8612 O   0  0  0  0  0
  -15.3096   -1.2904  -18.6602 O   0  0  0  0  0
  -14.1554   -0.8777  -16.1532 O   0  0  0  0  0
  -11.4567    0.0426  -21.7210 O   0  0  0  0  0
   -9.1052   -0.0371  -23.2061 O   0  0  0  0  0
   -7.1353   -1.9053  -22.5681 O   0  0  0  0  0
   -7.4068   -5.0044  -21.3423 O   0  0  0  0  0
   -5.4670   -1.6151  -16.8458 O   0  0  0  0  0
   -6.3900    0.4692  -16.4973 O   0  0  0  0  0
   -2.8106    3.8294  -17.8033 O   0  0  0  0  0
   -0.7374    2.2905  -18.8825 O   0  0  0  0  0
   -0.9978   -0.4959  -19.0023 O   0  0  0  0  0
   -1.9386   -4.3516  -12.4193 O   0  0  0  0  0
   -1.7408   -7.0793  -12.8786 O   0  0  0  0  0
   -3.1940   -8.2768  -14.9254 O   0  0  0  0  0
  1  2  1  0  0  0
  3  4  1  0  0  0
  3 67  1  0  0  0
  4 66  1  0  0  0
  5  6  1  0  0  0
  5 65  1  0  0  0
  6  7  1  0  0  0
  7 43  1  0  0  0
  8 43  1  0  0  0
  8  9  1  0  0  0
  9 10  1  0  0  0
  9 60  1  0  0  0
 10 44  1  0  0  0
 10 17  1  0  0  0
 11 44  1  0  0  0
 11 12  1  0  0  0
 12 13  1  0  0  0
 14 15  1  0  0  0
 14 48  1  0  0  0
 15 47  1  0  0  0
 16 46  1  0  0  0
 16  1  1  0  0  0
 17 18  1  0  0  0
 17 52  1  0  0  0
 18 49  1  0  0  0
 19 49  1  0  0  0
 19 20  1  0  0  0
 21 22  1  0  0  0
 22 58  1  0  0  0
 23 24  1  0  0  0
 23 57  1  0  0  0
 24 56  1  0  0  0
 25 26  1  0  0  0
 25 20  1  0  0  0
 27 28  1  0  0  0
 27 29  1  0  0  0
 28 52  1  0  0  0
 30 31  1  0  0  0
 30 55  1  0  0  0
 31 54  1  0  0  0
 32 53  1  0  0  0
 32 26  1  0  0  0
 33 21  1  0  0  0
 33 59  1  0  0  0
 33 18  1  0  0  0
 34 60  1  0  0  0
 34 35  1  0  0  0
 36 37  1  0  0  0
 37 64  1  0  0  0
 38 39  1  0  0  0
 38 63  1  0  0  0
 39 62  1  0  0  0
 40 35  1  0  0  0
 41  2  1  0  0  0
  2  3  2  0  0  0
  4  5  2  0  0  0
  6 41  2  0  0  0
  7 42  2  0  0  0
 11 45  2  0  0  0
 12  1  2  0  0  0
 13 14  2  0  0  0
 15 16  2  0  0  0
 19 50  2  0  0  0
 20 21  2  0  0  0
 22 23  2  0  0  0
 24 25  2  0  0  0
 26 27  2  0  0  0
 28 51  2  0  0  0
 29 30  2  0  0  0
 31 32  2  0  0  0
 34 61  2  0  0  0
 35 36  2  0  0  0
 37 38  2  0  0  0
 39 40  2  0  0  0
M  END
> <rmsd>
0.743476868

$$$$
CHEMBL4858288


 46 51  0  0  0  0  0  0  0  0999 V2000
   -4.5920   -0.3507  -15.1292 O   0  0  0  0  0
   -3.3982   -2.3600  -15.8513 O   0  0  0  0  0
   -7.8465   -5.6259  -21.2291 O   0  0  0  0  0
   -7.0005   -7.9125  -21.3925 O   0  0  0  0  0
  -12.8027   -8.9392  -18.3662 O   0  0  0  0  0
    0.3354    2.2347  -18.7583 O   0  0  0  0  0
   -3.9866   -1.0549  -16.3112 S   0  0  0  0  0
   -7.6155   -6.9002  -20.4672 S   0  0  0  0  0
   -5.2176   -1.3362  -17.5005 N   0  0  0  0  0
   -6.5418   -6.6262  -19.1335 N   0  0  0  0  0
   -3.9014   -8.3671  -19.6094 N   0  0  0  0  0
   -2.6188   -8.1757  -19.3471 N   0  0  0  0  0
   -2.4860   -7.5646  -18.1804 N   0  0  0  0  0
   -3.6785   -7.3423  -17.6528 N   0  0  0  0  0
   -8.1714   -0.5535  -18.6564 N   0  0  0  0  0
   -9.2664   -0.1676  -18.0225 N   0  0  0  0  0
   -8.9413    0.5868  -16.9842 N   0  0  0  0  0
   -7.6261    0.7116  -16.9154 N   0  0  0  0  0
   -5.5753   -2.6733  -17.8788 C   0  0  0  0  0
   -6.2052   -3.5483  -16.9712 C   0  0  0  0  0
   -6.5341   -3.1232  -15.6752 C   0  0  0  0  0
   -7.1782   -3.9857  -14.7864 C   0  0  0  0  0
   -7.5077   -5.2816  -15.1850 C   0  0  0  0  0
   -7.1948   -5.7174  -16.4737 C   0  0  0  0  0
   -6.5421   -4.8659  -17.3783 C   0  0  0  0  0
   -6.2490   -5.2908  -18.6915 C   0  0  0  0  0
   -5.6457   -4.3980  -19.5831 C   0  0  0  0  0
   -5.3158   -3.1044  -19.1834 C   0  0  0  0  0
   -9.1483   -7.4908  -19.8549 C   0  0  0  0  0
   -9.7139   -8.6610  -20.3716 C   0  0  0  0  0
  -10.9304   -9.1327  -19.8698 C   0  0  0  0  0
  -11.5893   -8.4406  -18.8482 C   0  0  0  0  0
  -11.0180   -7.2659  -18.3319 C   0  0  0  0  0
   -9.8023   -6.7942  -18.8343 C   0  0  0  0  0
  -13.5340   -8.3047  -17.3259 C   0  0  0  0  0
   -6.0244   -7.7833  -18.4124 C   0  0  0  0  0
   -4.5420   -7.8543  -18.5457 C   0  0  0  0  0
   -5.7225   -0.2025  -18.2630 C   0  0  0  0  0
   -7.1664    0.0089  -17.9643 C   0  0  0  0  0
   -2.7097   -0.0776  -17.0124 C   0  0  0  0  0
   -1.9581   -0.5795  -18.0794 C   0  0  0  0  0
   -0.9474    0.1979  -18.6519 C   0  0  0  0  0
   -0.6813    1.4821  -18.1643 C   0  0  0  0  0
   -1.4398    1.9837  -17.0939 C   0  0  0  0  0
   -2.4504    1.2062  -16.5217 C   0  0  0  0  0
    0.6754    3.5440  -18.3248 C   0  0  0  0  0
  7  9  1  0  0  0
  7 40  1  0  0  0
  8 10  1  0  0  0
  8 29  1  0  0  0
  9 19  1  0  0  0
 11 12  1  0  0  0
 14 13  1  0  0  0
 14 37  1  0  0  0
 15 16  1  0  0  0
 17 18  1  0  0  0
 19 20  1  0  0  0
 21 22  1  0  0  0
 23 24  1  0  0  0
 25 26  1  0  0  0
 25 20  1  0  0  0
 26 10  1  0  0  0
 27 28  1  0  0  0
 30 31  1  0  0  0
 32 33  1  0  0  0
 32  5  1  0  0  0
 34 29  1  0  0  0
 35  5  1  0  0  0
 36 10  1  0  0  0
 36 37  1  0  0  0
 38  9  1  0  0  0
 38 39  1  0  0  0
 39 15  1  0  0  0
 41 42  1  0  0  0
 43 44  1  0  0  0
 43  6  1  0  0  0
 45 40  1  0  0  0
 46  6  1  0  0  0
  7  1  2  0  0  0
  7  2  2  0  0  0
  8  3  2  0  0  0
  8  4  2  0  0  0
 12 13  2  0  0  0
 16 17  2  0  0  0
 20 21  2  0  0  0
 22 23  2  0  0  0
 24 25  2  0  0  0
 26 27  2  0  0  0
 28 19  2  0  0  0
 29 30  2  0  0  0
 31 32  2  0  0  0
 33 34  2  0  0  0
 37 11  2  0  0  0
 39 18  2  0  0  0
 40 41  2  0  0  0
 42 43  2  0  0  0
 44 45  2  0  0  0
M  END
> <rmsd>
0.836990178

$$$$
CHEMBL2304356 PubChem-136259890


106118  0  0  0  0  0  0  0  0999 V2000
   -1.9951    0.2789  -18.5895 C   0  0  0  0  0
   -3.3146    0.6756  -18.3931 C   0  0  0  0  0
   -3.2786    2.0414  -18.1445 C   0  0  0  0  0
   -1.9543    2.4166  -18.2214 C   0  0  0  0  0
    1.0063    2.4727  -18.6933 C   0  0  0  0  0
    2.4805    2.0881  -18.8206 C   0  0  0  0  0
    3.2123    4.0356  -17.6259 C   0  0  0  0  0
    4.0155    5.3340  -17.7346 C   0  0  0  0  0
    3.8819    5.3634  -19.9915 C   0  0  0  0  0
    3.0682    4.0672  -20.0376 C   0  0  0  0  0
   -1.5522    3.7290  -17.9720 C   0  0  0  0  0
   -2.5376    4.6766  -17.6560 C   0  0  0  0  0
   -3.8942    4.3021  -17.5915 C   0  0  0  0  0
   -4.2837    2.9740  -17.8338 C   0  0  0  0  0
   -5.7368    2.6412  -17.8376 C   0  0  0  0  0
   -6.9895    0.6951  -17.0289 C   0  0  0  0  0
   -7.5106    0.4267  -18.4144 C   0  0  0  0  0
   -6.5985   -0.4558  -19.2858 C   0  0  0  0  0
   -6.6636   -1.9942  -19.2047 C   0  0  0  0  0
   -6.7326   -2.5526  -17.8173 C   0  0  0  0  0
   -5.9865   -3.1592  -15.7870 C   0  0  0  0  0
   -5.0092   -3.2682  -14.6861 C   0  0  0  0  0
   -2.8759   -3.3679  -16.1427 C   0  0  0  0  0
   -1.5594   -4.0119  -15.8322 C   0  0  0  0  0
   -0.1814   -5.6767  -15.2063 C   0  0  0  0  0
    0.1691   -7.0630  -14.8487 C   0  0  0  0  0
   -0.2228   -8.1762  -15.6214 C   0  0  0  0  0
   -0.8708   -8.0479  -16.9299 C   0  0  0  0  0
   -2.5320   -8.1072  -18.4368 C   0  0  0  0  0
   -3.9275   -8.1860  -18.8845 C   0  0  0  0  0
   -6.3991   -8.0428  -18.2772 C   0  0  0  0  0
   -6.8049   -7.2460  -19.4834 C   0  0  0  0  0
   -7.9101   -7.4595  -21.8451 C   0  0  0  0  0
   -8.5463   -8.3245  -22.6575 C   0  0  0  0  0
   -9.7608   -8.7457  -24.7733 C   0  0  0  0  0
   -8.7573   -9.7424  -22.2223 C   0  0  0  0  0
   -7.6682   -6.0700  -22.2960 C   0  0  0  0  0
   -7.5645   -3.8260  -22.1793 C   0  0  0  0  0
   -7.5666   -2.5422  -21.4718 C   0  0  0  0  0
   -7.0768   -3.9667  -23.4813 C   0  0  0  0  0
   -7.2371   -7.6687  -17.0517 C   0  0  0  0  0
   -8.7145   -7.9073  -17.2981 C   0  0  0  0  0
   -1.4576   -8.1492  -19.3295 C   0  0  0  0  0
    0.1084   -9.4555  -15.1726 C   0  0  0  0  0
    0.8050   -9.6345  -13.9791 C   0  0  0  0  0
    1.1958   -8.5054  -13.2387 C   0  0  0  0  0
    1.9137   -8.6118  -11.9527 C   0  0  0  0  0
    2.7072   -9.5439  -10.0658 C   0  0  0  0  0
    2.9503  -10.6389   -9.1180 C   0  0  0  0  0
    3.6618  -11.2633   -6.7214 C   0  0  0  0  0
    3.5402  -12.5766   -6.9012 C   0  0  0  0  0
    4.0338  -10.7330   -5.3985 C   0  0  0  0  0
    3.0540   -8.2216   -9.7847 C   0  0  0  0  0
    0.6512   -4.6040  -14.8776 C   0  0  0  0  0
   -2.6721   -2.0191  -16.8215 C   0  0  0  0  0
   -1.5240   -1.1020  -18.8185 C   0  0  0  0  0
   -7.3320   -3.4878  -15.6103 C   0  0  0  0  0
   -4.5082   -0.2158  -18.4343 C   0  0  0  0  0
   -9.5464    1.0109  -19.0286 C   0  0  0  0  0
  -10.8184    0.4820  -19.6699 C   0  0  0  0  0
  -11.4960    1.6045  -20.4612 C   0  0  0  0  0
  -11.6010    2.9046  -19.6088 C   0  0  0  0  0
  -10.2794    3.1579  -18.8214 C   0  0  0  0  0
   -9.1418    3.7559  -19.6609 C   0  0  0  0  0
  -11.8223    5.3232  -19.6964 C   0  0  0  0  0
  -13.4721    3.9950  -20.5888 C   0  0  0  0  0
  -12.8727    1.1054  -20.8524 C   0  0  0  0  0
   -1.1737    1.3499  -18.5119 N   0  0  0  0  0
    3.3766    3.2487  -18.8575 N   0  0  0  0  0
   -5.6624   -2.6461  -17.0028 N   0  0  0  0  0
   -3.5924   -3.1846  -14.8867 N   0  0  0  0  0
   -1.4057   -5.3458  -15.7097 N   0  0  0  0  0
   -2.2072   -8.0624  -17.1130 N   0  0  0  0  0
   -4.9817   -7.8474  -17.9801 N   0  0  0  0  0
   -7.4712   -7.9317  -20.5559 N   0  0  0  0  0
   -7.8960   -4.9788  -21.5369 N   0  0  0  0  0
   -7.7144   -2.5352  -20.0532 N   0  0  0  0  0
    2.0793   -9.7553  -11.2559 N   0  0  0  0  0
    3.4194  -10.3387   -7.7939 N   0  0  0  0  0
    4.1582   -9.3278   -5.2071 N   0  0  0  0  0
    0.8692   -7.2688  -13.6996 N   0  0  0  0  0
  -12.0284    4.0670  -20.4157 N   0  0  0  0  0
    0.2030    1.3026  -18.6569 O   0  0  0  0  0
    3.5549    6.0883  -18.8300 O   0  0  0  0  0
   -6.0606    1.7136  -16.8091 O   0  0  0  0  0
   -7.3513   -0.0319  -16.0656 O   0  0  0  0  0
   -5.4344   -3.4361  -13.5116 O   0  0  0  0  0
   -4.1913   -8.5691  -20.0555 O   0  0  0  0  0
   -6.5790   -6.0047  -19.5178 O   0  0  0  0  0
   -9.0275   -7.8986  -23.9009 O   0  0  0  0  0
   -7.3379   -1.4687  -22.0940 O   0  0  0  0  0
   -6.8347   -8.4244  -15.9515 O   0  0  0  0  0
    2.7139  -11.8275   -9.4667 O   0  0  0  0  0
    4.2359  -11.5110   -4.4281 O   0  0  0  0  0
    1.1089  -10.9237  -13.5564 O   0  0  0  0  0
   -1.9868   -2.1830  -18.0573 O   0  0  0  0  0
   -0.6516   -1.3116  -19.7035 O   0  0  0  0  0
   -5.3142    0.0779  -19.5417 O   0  0  0  0  0
   -8.8373   -0.0179  -18.4050 O   0  0  0  0  0
   -9.8694    2.0173  -18.0964 O   0  0  0  0  0
  -10.7578    1.8510  -21.6240 O   0  0  0  0  0
   -7.0703   -5.6185  -23.8023 S   0  0  0  0  0
   -0.0594   -8.1190  -18.3927 S   0  0  0  0  0
    2.5388   -7.3090  -11.1000 S   0  0  0  0  0
   -0.1952   -3.2053  -15.2686 S   0  0  0  0  0
   -8.1162   -3.1174  -17.0531 S   0  0  0  0  0
  2  3  1  0  0  0
  3  4  1  0  0  0
  4 68  1  0  0  0
  5 83  1  0  0  0
  5  6  1  0  0  0
  6 69  1  0  0  0
  7 69  1  0  0  0
  7  8  1  0  0  0
  8 84  1  0  0  0
  9 84  1  0  0  0
  9 10  1  0  0  0
 10 69  1  0  0  0
 11 12  1  0  0  0
 13 14  1  0  0  0
 15 14  1  0  0  0
 15 85  1  0  0  0
 16 85  1  0  0  0
 17 16  1  0  0  0
 17 18  1  0  0  0
 17 99  1  0  0  0
 18 19  1  0  0  0
 18 98  1  0  0  0
 19 20  1  0  0  0
 19 77  1  0  0  0
 20106  1  0  0  0
 21 70  1  0  0  0
 21 22  1  0  0  0
 22 71  1  0  0  0
 23 71  1  0  0  0
 23 24  1  0  0  0
 23 55  1  0  0  0
 24105  1  0  0  0
 25 72  1  0  0  0
 25 26  1  0  0  0
 26 81  1  0  0  0
 27 28  1  0  0  0
 27 44  1  0  0  0
 28103  1  0  0  0
 29 73  1  0  0  0
 29 30  1  0  0  0
 30 74  1  0  0  0
 31 74  1  0  0  0
 31 32  1  0  0  0
 31 41  1  0  0  0
 32 75  1  0  0  0
 33 37  1  0  0  0
 34 90  1  0  0  0
 35 90  1  0  0  0
 36 34  1  0  0  0
 37102  1  0  0  0
 38 76  1  0  0  0
 38 39  1  0  0  0
 39 77  1  0  0  0
 40102  1  0  0  0
 41 92  1  0  0  0
 41 42  1  0  0  0
 43103  1  0  0  0
 45 46  1  0  0  0
 45 95  1  0  0  0
 46 47  1  0  0  0
 47104  1  0  0  0
 48 78  1  0  0  0
 48 49  1  0  0  0
 49 79  1  0  0  0
 50 52  1  0  0  0
 52 80  1  0  0  0
 53104  1  0  0  0
 54105  1  0  0  0
 55 96  1  0  0  0
 56 96  1  0  0  0
 56  1  1  0  0  0
 57106  1  0  0  0
 58 98  1  0  0  0
 58  2  1  0  0  0
 59 99  1  0  0  0
 59 60  1  0  0  0
 59100  1  0  0  0
 60 61  1  0  0  0
 61 62  1  0  0  0
 61101  1  0  0  0
 61 67  1  0  0  0
 62 63  1  0  0  0
 62 82  1  0  0  0
 63100  1  0  0  0
 63 64  1  0  0  0
 65 82  1  0  0  0
 66 82  1  0  0  0
 68 83  1  0  0  0
 68  1  1  0  0  0
 75 33  1  0  0  0
 79 50  1  0  0  0
  1  2  2  0  0  0
  4 11  2  0  0  0
 12 13  2  0  0  0
 14  3  2  0  0  0
 16 86  2  0  0  0
 20 70  2  0  0  0
 21 57  2  0  0  0
 22 87  2  0  0  0
 24 72  2  0  0  0
 25 54  2  0  0  0
 26 27  2  0  0  0
 28 73  2  0  0  0
 29 43  2  0  0  0
 30 88  2  0  0  0
 32 89  2  0  0  0
 33 34  2  0  0  0
 37 76  2  0  0  0
 38 40  2  0  0  0
 39 91  2  0  0  0
 44 45  2  0  0  0
 46 81  2  0  0  0
 47 78  2  0  0  0
 48 53  2  0  0  0
 49 93  2  0  0  0
 50 51  2  0  0  0
 52 94  2  0  0  0
 56 97  2  0  0  0
M  END
> <rmsd>
0.45648104

$$$$
CHEMBL3220833 PubChem-90667376


 37 38  0  0  0  0  0  0  0  0999 V2000
   -5.9701  -10.4379  -20.7427 C   0  0  0  0  0
   -5.9675   -9.0968  -20.0281 C   0  0  0  0  0
   -6.9174   -9.3360  -18.8287 C   0  0  0  0  0
   -6.5328   -8.0595  -21.0276 C   0  0  0  0  0
   -6.4930   -6.6348  -20.4974 C   0  0  0  0  0
   -8.7102   -3.3367  -21.3087 C   0  0  0  0  0
   -6.9147   -0.6752  -20.9794 C   0  0  0  0  0
   -6.6430   -0.7184  -19.4870 C   0  0  0  0  0
   -5.2088    0.0741  -17.9708 C   0  0  0  0  0
   -3.1354    0.5906  -16.8530 C   0  0  0  0  0
   -1.9638    1.3245  -16.6825 C   0  0  0  0  0
   -1.7084    2.3745  -17.5589 C   0  0  0  0  0
   -3.7292    1.9337  -18.7076 C   0  0  0  0  0
   -6.4647    0.8898  -17.7397 C   0  0  0  0  0
   -7.4198    0.3756  -18.7921 C   0  0  0  0  0
   -7.4550   -8.1564  -18.3090 O   0  0  0  0  0
   -4.5955   -8.8127  -19.7443 O   0  0  0  0  0
   -4.6158   -9.1795  -17.1152 O   0  0  0  0  0
   -2.6109   -7.8419  -18.0919 O   0  0  0  0  0
   -5.1096   -6.7301  -17.9159 O   0  0  0  0  0
   -5.8378   -8.1067  -22.2408 O   0  0  0  0  0
   -7.2373   -5.7959  -21.3281 O   0  0  0  0  0
   -8.8852   -5.2222  -19.3673 O   0  0  0  0  0
   -6.6363   -3.8867  -19.4013 O   0  0  0  0  0
   -6.9336   -3.5999  -23.3606 O   0  0  0  0  0
   -8.3808   -1.4314  -23.4189 O   0  0  0  0  0
   -6.3045   -1.7645  -21.6061 O   0  0  0  0  0
   -5.2747   -0.5254  -19.2392 O   0  0  0  0  0
   -4.5205    2.2265  -19.6438 O   0  0  0  0  0
   -6.9354    0.6655  -16.4430 O   0  0  0  0  0
   -8.5877   -0.1540  -18.2365 O   0  0  0  0  0
   -4.2669   -8.1713  -18.1871 P   0  0  0  0  0
   -7.8747   -4.6022  -20.3063 P   0  0  0  0  0
   -7.5427   -2.5483  -22.4616 P   0  0  0  0  0
   -4.0059    0.8981  -17.8516 N   0  0  0  0  0
   -0.5226    3.1463  -17.4188 N   0  0  0  0  0
   -2.5899    2.6578  -18.5515 N   0  0  0  0  0
  2  1  1  0  0  0
  2  3  1  0  0  0
  2 17  1  0  0  0
  2  4  1  0  0  0
  3 16  1  0  0  0
  4 21  1  0  0  0
  4  5  1  0  0  0
  5 22  1  0  0  0
  7 27  1  0  0  0
  8  7  1  0  0  0
  8 28  1  0  0  0
  9 28  1  0  0  0
  9 35  1  0  0  0
  9 14  1  0  0  0
 11 12  1  0  0  0
 12 36  1  0  0  0
 13 37  1  0  0  0
 13 35  1  0  0  0
 14 30  1  0  0  0
 14 15  1  0  0  0
 15 31  1  0  0  0
 15  8  1  0  0  0
 32 17  1  0  0  0
 32 19  1  0  0  0
 32 20  1  0  0  0
 33 22  1  0  0  0
 33 24  1  0  0  0
 33  6  1  0  0  0
 34  6  1  0  0  0
 34 26  1  0  0  0
 34 27  1  0  0  0
 35 10  1  0  0  0
 10 11  2  0  0  0
 12 37  2  0  0  0
 13 29  2  0  0  0
 32 18  2  0  0  0
 33 23  2  0  0  0
 34 25  2  0  0  0
M  END
> <rmsd>
0.759407103

$$$$
CHEMBL1205244 PubChem-44311275


 47 49  0  0  0  0  0  0  0  0999 V2000
   -0.0006   -3.4507  -15.7491 O   0  0  0  0  0
   -2.8759   -2.9146  -20.4071 O   0  0  0  0  0
   -4.8720   -2.8889  -17.5255 O   0  0  0  0  0
   -6.7554   -2.0442  -16.5263 O   0  0  0  0  0
   -7.7131    0.3567  -16.2723 O   0  0  0  0  0
   -5.7694    0.0579  -17.7303 O   0  0  0  0  0
   -8.0912   -0.7651  -18.5786 O   0  0  0  0  0
   -6.5699   -4.7539  -16.0435 O   0  0  0  0  0
   -7.9138   -5.5476  -13.9671 O   0  0  0  0  0
   -8.5658   -6.4380  -16.1528 O   0  0  0  0  0
   -9.1792   -3.9707  -15.5894 O   0  0  0  0  0
   -6.9931   -5.8205  -19.3395 O   0  0  0  0  0
   -6.2211   -4.0517  -21.1414 O   0  0  0  0  0
   -8.2403   -3.5509  -19.8282 O   0  0  0  0  0
   -8.3804   -5.3730  -21.6550 O   0  0  0  0  0
   -3.8282   -5.5994  -17.8963 O   0  0  0  0  0
   -4.2199   -7.7459  -19.3526 O   0  0  0  0  0
   -2.2983   -7.6959  -17.8423 O   0  0  0  0  0
   -2.1804   -6.2617  -20.0027 O   0  0  0  0  0
   -0.7825   -3.9575  -16.5979 C   0  0  0  0  0
   -2.0869   -3.2936  -16.8839 C   0  0  0  0  0
   -1.0945   -1.6923  -18.5546 C   0  0  0  0  0
   -1.6113   -0.3394  -18.1985 C   0  0  0  0  0
   -1.3555    0.1928  -16.9293 C   0  0  0  0  0
   -1.8634    1.4484  -16.5810 C   0  0  0  0  0
   -2.6309    2.1715  -17.4996 C   0  0  0  0  0
   -2.8909    1.6390  -18.7661 C   0  0  0  0  0
   -2.3839    0.3827  -19.1149 C   0  0  0  0  0
   -3.1166   -3.0230  -19.1756 C   0  0  0  0  0
   -4.4952   -3.4443  -18.7579 C   0  0  0  0  0
   -6.2761   -2.8858  -17.5350 C   0  0  0  0  0
   -6.8195   -4.3113  -17.3467 C   0  0  0  0  0
   -6.1542   -5.2753  -18.3442 C   0  0  0  0  0
   -4.7116   -4.9638  -18.7743 C   0  0  0  0  0
    0.8855   -5.7644  -17.1406 C   0  0  0  0  0
    0.9617   -6.9998  -17.9666 C   0  0  0  0  0
    0.8642   -8.2534  -17.3535 C   0  0  0  0  0
    0.9091   -9.4170  -18.1277 C   0  0  0  0  0
    1.0490   -9.3275  -19.5155 C   0  0  0  0  0
    1.1448   -8.0749  -20.1300 C   0  0  0  0  0
    1.1005   -6.9117  -19.3562 C   0  0  0  0  0
   -2.0853   -2.7120  -18.2235 N   0  0  0  0  0
   -0.4153   -5.1367  -17.3119 N   0  0  0  0  0
   -7.0599   -0.5600  -17.2672 S   0  0  0  0  0
   -8.0677   -5.2205  -15.4251 S   0  0  0  0  0
   -7.4342   -4.6401  -20.4769 S   0  0  0  0  0
   -3.1446   -6.8713  -18.7686 S   0  0  0  0  0
 20 43  1  0  0  0
 21 20  1  0  0  0
 21 42  1  0  0  0
 22 42  1  0  0  0
 22 23  1  0  0  0
 24 25  1  0  0  0
 26 27  1  0  0  0
 28 23  1  0  0  0
 30 29  1  0  0  0
 30  3  1  0  0  0
 31  3  1  0  0  0
 31  4  1  0  0  0
 31 32  1  0  0  0
 32  8  1  0  0  0
 32 33  1  0  0  0
 33 12  1  0  0  0
 33 34  1  0  0  0
 34 16  1  0  0  0
 34 30  1  0  0  0
 35 43  1  0  0  0
 35 36  1  0  0  0
 37 38  1  0  0  0
 39 40  1  0  0  0
 41 36  1  0  0  0
 42 29  1  0  0  0
 44  4  1  0  0  0
 44  7  1  0  0  0
 45  8  1  0  0  0
 45 11  1  0  0  0
 46 12  1  0  0  0
 46 15  1  0  0  0
 47 16  1  0  0  0
 47 19  1  0  0  0
 20  1  2  0  0  0
 23 24  2  0  0  0
 25 26  2  0  0  0
 27 28  2  0  0  0
 29  2  2  0  0  0
 36 37  2  0  0  0
 38 39  2  0  0  0
 40 41  2  0  0  0
 44  5  2  0  0  0
 44  6  2  0  0  0
 45  9  2  0  0  0
 45 10  2  0  0  0
 46 13  2  0  0  0
 46 14  2  0  0  0
 47 17  2  0  0  0
 47 18  2  0  0  0
M  END
> <rmsd>
0.651346862

$$$$
CHEMBL2414867 PubChem-73350702


 97108  0  0  0  0  0  0  0  0999 V2000
   -8.7412   -9.6210  -15.4357 P   0  0  0  0  0
   -6.4648   -8.9010  -16.8070 P   0  0  0  0  0
   -4.1906   -8.0293  -18.1043 P   0  0  0  0  0
   -7.7534   -1.0244  -16.8585 P   0  0  0  0  0
   -3.5901    6.2009  -16.3460 P   0  0  0  0  0
    2.6312    9.2213  -17.6571 P   0  0  0  0  0
   -9.2665  -10.2286  -14.1561 O   0  0  0  0  0
   -7.0456   -9.5163  -15.3294 O   0  0  0  0  0
   -6.8101   -9.8542  -17.9296 O   0  0  0  0  0
   -4.7706   -8.7633  -16.6786 O   0  0  0  0  0
   -4.6403   -8.8048  -19.3231 O   0  0  0  0  0
   -4.7539   -6.4318  -18.2230 O   0  0  0  0  0
   -4.3376   -3.7223  -18.6340 O   0  0  0  0  0
   -6.1999   -1.7020  -16.9439 O   0  0  0  0  0
   -8.6119   -1.8460  -15.9241 O   0  0  0  0  0
   -7.6399    0.5541  -16.2490 O   0  0  0  0  0
   -4.9558    1.8722  -16.1727 O   0  0  0  0  0
   -4.8128    5.0260  -16.1679 O   0  0  0  0  0
   -2.4115    5.8324  -15.4699 O   0  0  0  0  0
   -3.0989    6.4185  -17.9666 O   0  0  0  0  0
   -0.9286    6.9489  -19.6417 O   0  0  0  0  0
    2.0213    7.6538  -17.9068 O   0  0  0  0  0
    3.7910    9.1423  -16.6901 O   0  0  0  0  0
    3.1765    9.8189  -19.1476 O   0  0  0  0  0
    4.8025   12.9272  -19.9007 O   0  0  0  0  0
    7.8940   11.6102  -20.7741 O   0  0  0  0  0
    6.2028    9.7521  -20.2109 O   0  0  0  0  0
    1.4424   10.2501  -17.0185 O   0  0  0  0  0
    0.7346    5.6976  -16.8423 O   0  0  0  0  0
   -4.2126    7.6746  -15.7938 O   0  0  0  0  0
   -6.9160    4.4423  -17.6139 O   0  0  0  0  0
   -8.4690   -0.9994  -18.3947 O   0  0  0  0  0
   -5.8002   -3.7893  -15.4321 O   0  0  0  0  0
   -2.4967   -8.0394  -18.0668 O   0  0  0  0  0
   -7.1519   -7.3854  -17.1123 O   0  0  0  0  0
   -9.4205   -8.0837  -15.6234 O   0  0  0  0  0
   -9.2047  -10.6072  -16.7308 O   0  0  0  0  0
   -3.9984   -5.6969  -17.3004 C   0  0  0  0  0
   -4.4116   -4.2333  -17.3231 C   0  0  0  0  0
   -5.8161   -4.0687  -16.7999 C   0  0  0  0  0
   -6.3606   -2.9250  -17.6078 C   0  0  0  0  0
   -5.4851   -2.9293  -18.8436 C   0  0  0  0  0
   -6.7104   -4.6862  -20.1784 C   0  0  0  0  0
   -7.2979   -3.5890  -21.8913 C   0  0  0  0  0
   -6.6156   -2.7493  -21.0802 C   0  0  0  0  0
   -6.4367   -1.4164  -21.4408 C   0  0  0  0  0
   -7.6549   -1.8770  -23.4395 C   0  0  0  0  0
   -7.0151    1.2959  -17.2531 C   0  0  0  0  0
   -6.1814    2.3936  -16.6233 C   0  0  0  0  0
   -5.9008    3.4828  -17.6245 C   0  0  0  0  0
   -4.5957    4.0401  -17.1385 C   0  0  0  0  0
   -3.9607    2.8233  -16.4852 C   0  0  0  0  0
   -3.1988    1.7135  -18.6187 C   0  0  0  0  0
   -1.1040    1.6062  -18.3316 C   0  0  0  0  0
   -1.6435    2.1491  -17.2175 C   0  0  0  0  0
   -0.8215    2.5506  -16.1679 C   0  0  0  0  0
    1.0507    1.8514  -17.4684 C   0  0  0  0  0
   -2.1717    5.4072  -18.2494 C   0  0  0  0  0
   -0.8131    5.9837  -18.6294 C   0  0  0  0  0
   -0.1192    6.6246  -17.4445 C   0  0  0  0  0
    0.6351    7.7838  -18.0655 C   0  0  0  0  0
    0.2602    7.6832  -19.5332 C   0  0  0  0  0
    0.8643    9.4148  -21.2167 C   0  0  0  0  0
   -0.3895   11.0467  -20.7249 C   0  0  0  0  0
   -0.6703   10.0402  -19.8599 C   0  0  0  0  0
   -1.6464   10.2239  -18.8785 C   0  0  0  0  0
   -1.9753   12.4320  -19.7199 C   0  0  0  0  0
    3.5586   11.1408  -18.9103 C   0  0  0  0  0
    4.6511   11.5335  -19.8855 C   0  0  0  0  0
    5.9737   10.9199  -19.4763 C   0  0  0  0  0
    6.9809   12.0033  -19.7925 C   0  0  0  0  0
    6.1257   13.1327  -20.3208 C   0  0  0  0  0
    6.7227   14.8401  -18.5564 C   0  0  0  0  0
    7.3824   16.4664  -19.7426 C   0  0  0  0  0
    7.0301   15.4633  -20.5790 C   0  0  0  0  0
    7.1344   15.6328  -21.9566 C   0  0  0  0  0
    7.9460   17.8378  -21.5473 C   0  0  0  0  0
   -6.2341   -3.4276  -19.9898 N   0  0  0  0  0
   -7.3796   -4.8197  -21.3573 N   0  0  0  0  0
   -6.9702   -1.0068  -22.6282 N   0  0  0  0  0
   -7.8238   -3.1837  -23.0726 N   0  0  0  0  0
   -5.7378   -0.4982  -20.6072 N   0  0  0  0  0
   -2.9721    2.2317  -17.3833 N   0  0  0  0  0
   -2.0540    1.3132  -19.2376 N   0  0  0  0  0
    0.5238    2.3908  -16.3216 N   0  0  0  0  0
    0.2329    1.4541  -18.4880 N   0  0  0  0  0
   -1.3504    3.0972  -14.9661 N   0  0  0  0  0
    0.1267    8.9962  -20.1581 N   0  0  0  0  0
    0.5698   10.6883  -21.5947 N   0  0  0  0  0
   -2.2810   11.4311  -18.8352 N   0  0  0  0  0
   -1.0223   12.2432  -20.6785 N   0  0  0  0  0
   -1.9947    9.2076  -17.9485 N   0  0  0  0  0
    6.6124   14.4229  -19.8458 N   0  0  0  0  0
    7.2008   16.1119  -18.4581 N   0  0  0  0  0
    7.5966   16.8341  -22.4138 N   0  0  0  0  0
    7.8395   17.6586  -20.1954 N   0  0  0  0  0
    6.7723   14.6018  -22.8701 N   0  0  0  0  0
  1  8  1  0  0  0
  1 36  1  0  0  0
  1 37  1  0  0  0
  2  8  1  0  0  0
  2 10  1  0  0  0
  2 35  1  0  0  0
  3 10  1  0  0  0
  3 12  1  0  0  0
  3 34  1  0  0  0
  4 14  1  0  0  0
  4 16  1  0  0  0
  4 32  1  0  0  0
  5 18  1  0  0  0
  5 20  1  0  0  0
  5 30  1  0  0  0
  6 22  1  0  0  0
  6 24  1  0  0  0
  6 28  1  0  0  0
 38 12  1  0  0  0
 39 38  1  0  0  0
 39 40  1  0  0  0
 39 13  1  0  0  0
 40 41  1  0  0  0
 40 33  1  0  0  0
 41 42  1  0  0  0
 41 14  1  0  0  0
 42 13  1  0  0  0
 42 78  1  0  0  0
 44 79  1  0  0  0
 44 81  1  0  0  0
 45 46  1  0  0  0
 45 78  1  0  0  0
 46 82  1  0  0  0
 47 80  1  0  0  0
 48 16  1  0  0  0
 49 48  1  0  0  0
 49 50  1  0  0  0
 49 17  1  0  0  0
 50 51  1  0  0  0
 50 31  1  0  0  0
 51 52  1  0  0  0
 51 18  1  0  0  0
 52 17  1  0  0  0
 52 83  1  0  0  0
 54 84  1  0  0  0
 54 86  1  0  0  0
 55 56  1  0  0  0
 55 83  1  0  0  0
 56 87  1  0  0  0
 57 85  1  0  0  0
 58 20  1  0  0  0
 59 58  1  0  0  0
 59 60  1  0  0  0
 59 21  1  0  0  0
 60 61  1  0  0  0
 60 29  1  0  0  0
 61 62  1  0  0  0
 61 22  1  0  0  0
 62 21  1  0  0  0
 62 88  1  0  0  0
 64 89  1  0  0  0
 64 91  1  0  0  0
 65 66  1  0  0  0
 65 88  1  0  0  0
 66 92  1  0  0  0
 67 90  1  0  0  0
 68 24  1  0  0  0
 69 68  1  0  0  0
 69 70  1  0  0  0
 69 25  1  0  0  0
 70 71  1  0  0  0
 70 27  1  0  0  0
 71 72  1  0  0  0
 71 26  1  0  0  0
 72 25  1  0  0  0
 72 93  1  0  0  0
 74 94  1  0  0  0
 74 96  1  0  0  0
 75 76  1  0  0  0
 75 93  1  0  0  0
 76 97  1  0  0  0
 77 95  1  0  0  0
 78 43  1  0  0  0
 83 53  1  0  0  0
 88 63  1  0  0  0
 93 73  1  0  0  0
  1  7  2  0  0  0
  2  9  2  0  0  0
  3 11  2  0  0  0
  4 15  2  0  0  0
  5 19  2  0  0  0
  6 23  2  0  0  0
 43 79  2  0  0  0
 44 45  2  0  0  0
 46 80  2  0  0  0
 47 81  2  0  0  0
 53 84  2  0  0  0
 54 55  2  0  0  0
 56 85  2  0  0  0
 57 86  2  0  0  0
 63 89  2  0  0  0
 64 65  2  0  0  0
 66 90  2  0  0  0
 67 91  2  0  0  0
 73 94  2  0  0  0
 74 75  2  0  0  0
 76 95  2  0  0  0
 77 96  2  0  0  0
M  END
> <rmsd>
0.700465262

$$$$
CHEMBL1161216 PubChem-381411 PubChem-54608191 PubChem-6331303


 41 43  0  0  0  0  0  0  0  0999 V2000
   -7.8556    0.8049  -17.4197 S   0  0  0  0  0
   -6.1964   -5.3150  -21.6515 S   0  0  0  0  0
   -2.8860   -7.7464  -18.5882 S   0  0  0  0  0
   -0.5944    4.5611  -19.4656 S   0  0  0  0  0
   -0.2289    0.8922  -21.8663 S   0  0  0  0  0
   -8.8359   -0.2961  -17.7136 O   0  0  0  0  0
   -7.5387    0.8217  -15.9497 O   0  0  0  0  0
   -6.4444    0.5804  -18.3166 O   0  0  0  0  0
   -3.9778   -1.6879  -16.8165 O   0  0  0  0  0
   -6.0256   -3.9897  -20.5848 O   0  0  0  0  0
   -7.2469   -4.9966  -22.6774 O   0  0  0  0  0
   -4.8882   -5.5759  -22.3436 O   0  0  0  0  0
   -6.6594   -6.6808  -20.7898 O   0  0  0  0  0
   -2.8566   -6.3002  -17.6738 O   0  0  0  0  0
   -2.3472   -7.4816  -19.9655 O   0  0  0  0  0
   -2.0312   -8.7804  -17.9122 O   0  0  0  0  0
   -4.4624   -8.3170  -18.7030 O   0  0  0  0  0
   -0.9124    2.9495  -19.9415 O   0  0  0  0  0
   -0.0118    4.5743  -18.0809 O   0  0  0  0  0
    0.3855    5.1762  -20.4242 O   0  0  0  0  0
   -2.0213    5.4471  -19.4849 O   0  0  0  0  0
   -1.4078    0.1881  -20.8444 O   0  0  0  0  0
    0.9822    1.2820  -21.0660 O   0  0  0  0  0
   -0.7970    2.1002  -22.5562 O   0  0  0  0  0
    0.2213   -0.2339  -23.0264 O   0  0  0  0  0
   -8.5410    2.2770  -17.8469 O   0  0  0  0  0
   -5.9088   -0.6419  -17.8969 C   0  0  0  0  0
   -4.5787   -0.4333  -17.1505 C   0  0  0  0  0
   -4.1435   -2.8396  -17.5977 C   0  0  0  0  0
   -5.0207   -2.8396  -18.7021 C   0  0  0  0  0
   -5.1649   -3.9994  -19.4805 C   0  0  0  0  0
   -4.4438   -5.1511  -19.1350 C   0  0  0  0  0
   -3.5831   -5.1593  -18.0289 C   0  0  0  0  0
   -3.4396   -3.9994  -17.2644 C   0  0  0  0  0
   -5.7338   -1.5761  -19.0928 C   0  0  0  0  0
   -3.6080    0.4374  -17.8978 C   0  0  0  0  0
   -2.9279   -0.0349  -19.0264 C   0  0  0  0  0
   -2.0249    0.7743  -19.7256 C   0  0  0  0  0
   -1.8015    2.1013  -19.2752 C   0  0  0  0  0
   -2.4919    2.5648  -18.1415 C   0  0  0  0  0
   -3.3860    1.7416  -17.4587 C   0  0  0  0  0
  1  8  1  0  0  0
  1 26  1  0  0  0
  2 10  1  0  0  0
  2 13  1  0  0  0
  3 14  1  0  0  0
  3 17  1  0  0  0
  4 18  1  0  0  0
  4 21  1  0  0  0
  5 22  1  0  0  0
  5 25  1  0  0  0
 27  8  1  0  0  0
 27 28  1  0  0  0
 28  9  1  0  0  0
 28 36  1  0  0  0
 29  9  1  0  0  0
 30 31  1  0  0  0
 31 10  1  0  0  0
 32 33  1  0  0  0
 33 14  1  0  0  0
 34 29  1  0  0  0
 35 30  1  0  0  0
 35 27  1  0  0  0
 37 38  1  0  0  0
 38 22  1  0  0  0
 39 18  1  0  0  0
 39 40  1  0  0  0
 41 36  1  0  0  0
  1  6  2  0  0  0
  1  7  2  0  0  0
  2 11  2  0  0  0
  2 12  2  0  0  0
  3 15  2  0  0  0
  3 16  2  0  0  0
  4 19  2  0  0  0
  4 20  2  0  0  0
  5 23  2  0  0  0
  5 24  2  0  0  0
 29 30  2  0  0  0
 31 32  2  0  0  0
 33 34  2  0  0  0
 36 37  2  0  0  0
 38 39  2  0  0  0
 40 41  2  0  0  0
M  END
> <rmsd>
0.78389436

$$$$
CHEMBL1255859


 67 74  0  0  0  0  0  0  0  0999 V2000
   -5.6275   -1.9233  -15.0801 C   0  0  0  0  0
   -4.2602   -2.2381  -15.0827 C   0  0  0  0  0
   -3.3635   -1.5849  -15.9849 C   0  0  0  0  0
   -3.8867   -0.6465  -16.9362 C   0  0  0  0  0
   -5.2922   -0.4536  -16.9645 C   0  0  0  0  0
   -6.1059   -1.0117  -16.0084 C   0  0  0  0  0
   -7.5636    0.3367  -17.1956 C   0  0  0  0  0
   -6.2010    0.3286  -17.8129 C   0  0  0  0  0
   -7.8886    1.7264  -16.6845 C   0  0  0  0  0
   -8.8844   -1.4217  -18.4314 C   0  0  0  0  0
   -8.1106   -2.4423  -18.0939 C   0  0  0  0  0
   -8.5129   -3.8523  -18.3689 C   0  0  0  0  0
   -7.2982   -4.7501  -18.0810 C   0  0  0  0  0
   -6.4644   -5.0581  -19.3253 C   0  0  0  0  0
   -4.9724   -5.0740  -18.9869 C   0  0  0  0  0
   -4.2497   -6.1070  -19.8602 C   0  0  0  0  0
   -2.7210   -6.0990  -19.7062 C   0  0  0  0  0
   -2.2442   -6.1004  -18.2392 C   0  0  0  0  0
   -0.7480   -5.8054  -18.0436 C   0  0  0  0  0
   -0.2801   -4.6838  -18.9116 C   0  0  0  0  0
    0.2219   -3.5778  -18.3858 C   0  0  0  0  0
    0.7079   -2.5178  -19.2715 C   0  0  0  0  0
    1.2598   -1.3805  -18.8433 C   0  0  0  0  0
    1.4103   -1.0429  -17.4120 C   0  0  0  0  0
   -1.0506   -1.0843  -16.6897 C   0  0  0  0  0
   -1.9600   -1.8146  -15.9092 C   0  0  0  0  0
   -1.5260   -0.0923  -17.5528 C   0  0  0  0  0
   -2.9848    0.1090  -17.7153 C   0  0  0  0  0
   -2.4951    1.9026  -19.1819 C   0  0  0  0  0
   -1.1141    1.6889  -18.9906 C   0  0  0  0  0
   -0.1877    2.5120  -19.6328 C   0  0  0  0  0
   -0.6132    3.5574  -20.4704 C   0  0  0  0  0
   -1.9925    3.7550  -20.6567 C   0  0  0  0  0
   -2.9299    2.9371  -20.0197 C   0  0  0  0  0
    1.7906    4.1474  -20.9316 C   0  0  0  0  0
    2.6653    4.9755  -21.8771 C   0  0  0  0  0
    0.9730    6.2089  -22.7520 C   0  0  0  0  0
   -0.1414    5.5530  -21.9308 C   0  0  0  0  0
    1.3575    5.2504  -23.8713 C   0  0  0  0  0
    2.4843    4.4242  -23.2860 C   0  0  0  0  0
    3.1067    7.2324  -22.4877 C   0  0  0  0  0
    1.8304   -0.4589  -19.8653 C   0  0  0  0  0
    0.1179   -7.0328  -18.2922 C   0  0  0  0  0
   -2.0818   -7.2000  -20.5437 C   0  0  0  0  0
   -4.3590   -3.6798  -19.0852 C   0  0  0  0  0
   -7.2047   -4.6713  -21.6424 C   0  0  0  0  0
   -7.4535   -3.7233  -22.7579 C   0  0  0  0  0
   -7.6740   -6.0700  -17.4182 C   0  0  0  0  0
  -10.6700   -4.3871  -18.4353 C   0  0  0  0  0
   -6.5617   -2.5536  -14.1034 C   0  0  0  0  0
   -7.4209   -0.5654  -16.0988 O   0  0  0  0  0
   -5.9333    0.8329  -18.9354 O   0  0  0  0  0
   -8.5832   -0.0902  -18.1056 O   0  0  0  0  0
    2.4970   -0.5537  -17.0070 O   0  0  0  0  0
   -1.4960   -2.6762  -15.1136 O   0  0  0  0  0
   -0.6907    0.7154  -18.1953 O   0  0  0  0  0
   -4.2863    3.1624  -20.2224 O   0  0  0  0  0
   -2.6218   -7.2709  -17.5728 O   0  0  0  0  0
   -4.7584   -7.3815  -19.5957 O   0  0  0  0  0
   -6.7415   -4.1865  -20.4198 O   0  0  0  0  0
   -7.4034   -5.9068  -21.8165 O   0  0  0  0  0
   -9.6032   -4.1855  -17.5528 O   0  0  0  0  0
   -3.7988   -3.1754  -14.1609 O   0  0  0  0  0
    0.3596   -1.2720  -16.4644 N   0  0  0  0  0
   -3.3892    1.1147  -18.5301 N   0  0  0  0  0
    0.3470    4.4088  -21.1286 N   0  0  0  0  0
    2.1339    6.3313  -21.8807 N   0  0  0  0  0
  2  3  1  0  0  0
  2 63  1  0  0  0
  4  5  1  0  0  0
  6 51  1  0  0  0
  6  1  1  0  0  0
  7 51  1  0  0  0
  7  8  1  0  0  0
  7  9  1  0  0  0
  7 53  1  0  0  0
  8  5  1  0  0  0
 10 53  1  0  0  0
 12 11  1  0  0  0
 12 13  1  0  0  0
 12 62  1  0  0  0
 13 14  1  0  0  0
 13 48  1  0  0  0
 14 15  1  0  0  0
 14 60  1  0  0  0
 15 16  1  0  0  0
 15 45  1  0  0  0
 16 17  1  0  0  0
 16 59  1  0  0  0
 17 18  1  0  0  0
 17 44  1  0  0  0
 18 19  1  0  0  0
 18 58  1  0  0  0
 19 20  1  0  0  0
 19 43  1  0  0  0
 21 22  1  0  0  0
 23 24  1  0  0  0
 24 64  1  0  0  0
 25 26  1  0  0  0
 26  3  1  0  0  0
 27 28  1  0  0  0
 27 56  1  0  0  0
 28  4  1  0  0  0
 29 65  1  0  0  0
 30 56  1  0  0  0
 30 31  1  0  0  0
 32 33  1  0  0  0
 32 66  1  0  0  0
 34 57  1  0  0  0
 34 29  1  0  0  0
 35 66  1  0  0  0
 35 36  1  0  0  0
 36 67  1  0  0  0
 37 67  1  0  0  0
 37 38  1  0  0  0
 37 39  1  0  0  0
 38 66  1  0  0  0
 39 40  1  0  0  0
 40 36  1  0  0  0
 41 67  1  0  0  0
 42 23  1  0  0  0
 46 60  1  0  0  0
 47 46  1  0  0  0
 49 62  1  0  0  0
 50  1  1  0  0  0
 64 25  1  0  0  0
  1  2  2  0  0  0
  3  4  2  0  0  0
  5  6  2  0  0  0
  8 52  2  0  0  0
 10 11  2  0  0  0
 20 21  2  0  0  0
 22 23  2  0  0  0
 24 54  2  0  0  0
 25 27  2  0  0  0
 26 55  2  0  0  0
 28 65  2  0  0  0
 29 30  2  0  0  0
 31 32  2  0  0  0
 33 34  2  0  0  0
 46 61  2  0  0  0
M  END
> <rmsd>
0.73214227

$$$$
CHEMBL501154 169356891 PubChem-452240 ZINC000169356891


 68 74  0  0  0  0  0  0  0  0999 V2000
   -5.6741   -4.2340  -22.7750 O   0  0  0  0  0
   -7.8441   -4.7274  -22.1889 O   0  0  0  0  0
   -5.3445   -7.7985  -19.7653 O   0  0  0  0  0
   -4.0471   -6.1192  -20.6633 O   0  0  0  0  0
   -0.7838   -4.7138  -22.9199 O   0  0  0  0  0
    0.7949   -6.2631  -23.5708 O   0  0  0  0  0
    1.1099   -0.3693  -24.7569 O   0  0  0  0  0
    3.5447   -1.0108  -25.9727 O   0  0  0  0  0
    4.4345   -3.6692  -25.9728 O   0  0  0  0  0
   -2.2282   -4.0829  -20.6230 O   0  0  0  0  0
   -2.5854   -2.4459  -19.0371 O   0  0  0  0  0
   -0.6537   -1.8360  -17.9360 O   0  0  0  0  0
   -5.1560    1.9387  -19.2522 O   0  0  0  0  0
   -3.6951    3.7904  -17.7342 O   0  0  0  0  0
   -1.3015    3.0028  -16.5185 O   0  0  0  0  0
   -3.0794   -4.4467  -17.0672 O   0  0  0  0  0
   -4.3552   -4.5069  -15.1795 O   0  0  0  0  0
   -6.5135    0.0949  -16.8445 O   0  0  0  0  0
   -8.7872   -1.1438  -17.9078 O   0  0  0  0  0
   -7.8550   -7.4489  -18.1613 O   0  0  0  0  0
   -9.9819   -5.8607  -18.6752 O   0  0  0  0  0
   -8.8205   -3.9123  -18.2813 O   0  0  0  0  0
   -3.3961   -7.0628  -17.9382 O   0  0  0  0  0
   -1.5777   -7.9101  -16.7887 O   0  0  0  0  0
   -3.4462  -11.1675  -13.3701 O   0  0  0  0  0
   -6.2166  -11.1155  -13.7600 O   0  0  0  0  0
   -7.3102   -9.4290  -15.7085 O   0  0  0  0  0
   -6.5287   -4.4107  -21.8616 C   0  0  0  0  0
   -6.1238   -4.2684  -20.4340 C   0  0  0  0  0
   -6.2870   -5.5960  -19.6799 C   0  0  0  0  0
   -5.2123   -6.5782  -20.0456 C   0  0  0  0  0
   -2.7281   -6.4166  -20.1954 C   0  0  0  0  0
   -1.7627   -5.4056  -20.8337 C   0  0  0  0  0
   -1.6338   -5.6793  -22.3217 C   0  0  0  0  0
    0.4134   -5.0615  -23.5467 C   0  0  0  0  0
    1.2329   -4.0143  -24.1741 C   0  0  0  0  0
    0.7953   -2.6832  -24.1705 C   0  0  0  0  0
    1.5634   -1.6820  -24.7680 C   0  0  0  0  0
    2.7815   -2.0057  -25.3744 C   0  0  0  0  0
    3.2263   -3.3344  -25.3779 C   0  0  0  0  0
    2.4539   -4.3325  -24.7800 C   0  0  0  0  0
   -2.1623   -3.7863  -19.2407 C   0  0  0  0  0
   -1.7864   -1.5057  -18.3860 C   0  0  0  0  0
   -2.2804   -0.1320  -18.2113 C   0  0  0  0  0
   -3.4840    0.2609  -18.8097 C   0  0  0  0  0
   -3.9598    1.5641  -18.6504 C   0  0  0  0  0
   -3.2301    2.4891  -17.8882 C   0  0  0  0  0
   -2.0281    2.0997  -17.2854 C   0  0  0  0  0
   -1.5564    0.7947  -17.4485 C   0  0  0  0  0
   -3.0825   -4.7227  -18.4535 C   0  0  0  0  0
   -4.2633   -4.1748  -16.3889 C   0  0  0  0  0
   -5.3679   -3.4141  -16.9987 C   0  0  0  0  0
   -5.4045   -2.0393  -16.7408 C   0  0  0  0  0
   -6.5198   -1.2745  -17.0837 C   0  0  0  0  0
   -7.6516   -1.8930  -17.6232 C   0  0  0  0  0
   -7.6475   -3.2717  -17.8571 C   0  0  0  0  0
   -6.4747   -4.0289  -17.6311 C   0  0  0  0  0
   -6.4584   -5.4676  -18.1319 C   0  0  0  0  0
   -7.7840   -6.1256  -17.7204 C   0  0  0  0  0
   -8.9332   -5.3072  -18.2517 C   0  0  0  0  0
   -2.6168   -6.1472  -18.6956 C   0  0  0  0  0
   -2.8323   -7.8853  -16.9599 C   0  0  0  0  0
   -3.7086   -8.7207  -16.1243 C   0  0  0  0  0
   -3.1661   -9.5550  -15.1365 C   0  0  0  0  0
   -4.0003  -10.3486  -14.3446 C   0  0  0  0  0
   -5.3862  -10.3157  -14.5378 C   0  0  0  0  0
   -5.9352   -9.4773  -15.5180 C   0  0  0  0  0
   -5.0983   -8.6849  -16.3073 C   0  0  0  0  0
 28  2  1  0  0  0
 29 28  1  0  0  0
 30 29  1  0  0  0
 30 31  1  0  0  0
 31  4  1  0  0  0
 32  4  1  0  0  0
 32 33  1  0  0  0
 33 34  1  0  0  0
 33 10  1  0  0  0
 34  5  1  0  0  0
 35  5  1  0  0  0
 35 36  1  0  0  0
 37 38  1  0  0  0
 38  7  1  0  0  0
 39  8  1  0  0  0
 39 40  1  0  0  0
 40  9  1  0  0  0
 41 36  1  0  0  0
 42 10  1  0  0  0
 42 11  1  0  0  0
 42 50  1  0  0  0
 43 11  1  0  0  0
 43 44  1  0  0  0
 45 46  1  0  0  0
 46 13  1  0  0  0
 47 14  1  0  0  0
 47 48  1  0  0  0
 48 15  1  0  0  0
 49 44  1  0  0  0
 50 16  1  0  0  0
 50 61  1  0  0  0
 51 16  1  0  0  0
 51 52  1  0  0  0
 53 54  1  0  0  0
 54 18  1  0  0  0
 55 19  1  0  0  0
 55 56  1  0  0  0
 56 22  1  0  0  0
 57 52  1  0  0  0
 58 57  1  0  0  0
 58 59  1  0  0  0
 58 30  1  0  0  0
 59 20  1  0  0  0
 59 60  1  0  0  0
 60 22  1  0  0  0
 61 23  1  0  0  0
 61 32  1  0  0  0
 62 23  1  0  0  0
 62 63  1  0  0  0
 64 65  1  0  0  0
 65 25  1  0  0  0
 66 26  1  0  0  0
 66 67  1  0  0  0
 67 27  1  0  0  0
 68 63  1  0  0  0
 28  1  2  0  0  0
 31  3  2  0  0  0
 35  6  2  0  0  0
 36 37  2  0  0  0
 38 39  2  0  0  0
 40 41  2  0  0  0
 43 12  2  0  0  0
 44 45  2  0  0  0
 46 47  2  0  0  0
 48 49  2  0  0  0
 51 17  2  0  0  0
 52 53  2  0  0  0
 54 55  2  0  0  0
 56 57  2  0  0  0
 60 21  2  0  0  0
 62 24  2  0  0  0
 63 64  2  0  0  0
 65 66  2  0  0  0
 67 68  2  0  0  0
M  END
> <rmsd>
0.767547905

$$$$
CHEMBL405496 PubChem-44340440


 76 84  0  0  0  0  0  0  0  0999 V2000
  -10.4493   -4.2803  -20.6291 N   0  0  0  0  0
  -11.9410   -4.7797  -18.9974 N   0  0  0  0  0
  -13.8112   -6.1203  -21.8487 N   0  0  0  0  0
  -11.7173   -5.1875  -22.4806 N   0  0  0  0  0
  -14.5752   -6.1017  -19.5518 N   0  0  0  0  0
   -5.2198    0.6278  -17.6422 N   0  0  0  0  0
   -4.3783   -0.2370  -19.5598 N   0  0  0  0  0
   -1.2214    0.8363  -18.0554 N   0  0  0  0  0
   -3.1080    1.3170  -16.6882 N   0  0  0  0  0
   -1.4435   -0.2700  -20.2016 N   0  0  0  0  0
   -3.7114    7.8416  -20.4973 N   0  0  0  0  0
   -4.9097    9.1251  -21.9255 N   0  0  0  0  0
   -6.3801   10.3323  -18.8089 N   0  0  0  0  0
   -4.7363    8.6573  -18.4557 N   0  0  0  0  0
   -6.9623   11.1053  -21.0396 N   0  0  0  0  0
  -11.5186   -4.8656  -21.1778 C   0  0  0  0  0
  -12.4111   -5.1615  -20.2071 C   0  0  0  0  0
  -10.7171   -4.2556  -19.2906 C   0  0  0  0  0
  -13.5977   -5.8000  -20.5336 C   0  0  0  0  0
  -12.8806   -5.8201  -22.8156 C   0  0  0  0  0
  -13.1308   -6.1923  -24.2380 C   0  0  0  0  0
   -9.2016   -3.9300  -21.2994 C   0  0  0  0  0
   -8.5462   -2.7314  -20.6514 C   0  0  0  0  0
   -7.0677   -3.0321  -20.7566 C   0  0  0  0  0
   -7.0257   -4.4403  -21.3242 C   0  0  0  0  0
   -6.0368   -5.2938  -20.5521 C   0  0  0  0  0
   -9.3398    0.1758  -17.7888 C   0  0  0  0  0
   -8.4177    1.0294  -16.9230 C   0  0  0  0  0
   -6.1662    1.1653  -16.6651 C   0  0  0  0  0
   -3.8864    0.7254  -17.6251 C   0  0  0  0  0
   -3.3820    0.2079  -18.7678 C   0  0  0  0  0
   -5.5018    0.0423  -18.8382 C   0  0  0  0  0
   -2.0138    0.2517  -19.0024 C   0  0  0  0  0
   -1.7599    1.3665  -16.9093 C   0  0  0  0  0
   -6.6288    2.5506  -17.0816 C   0  0  0  0  0
   -7.9839    2.2716  -17.6606 C   0  0  0  0  0
   -4.1709    4.1044  -18.1090 C   0  0  0  0  0
   -3.0700    4.8887  -18.8120 C   0  0  0  0  0
   -2.8552    6.7498  -20.0431 C   0  0  0  0  0
   -4.5627    8.6049  -19.7997 C   0  0  0  0  0
   -5.2646    9.3825  -20.6540 C   0  0  0  0  0
   -3.9538    8.1615  -21.7936 C   0  0  0  0  0
   -6.2006   10.2744  -20.1653 C   0  0  0  0  0
   -5.6565    9.5324  -17.9565 C   0  0  0  0  0
   -2.1623    7.0830  -18.7328 C   0  0  0  0  0
   -2.4265    5.8799  -17.8661 C   0  0  0  0  0
   -8.3087   -5.0085  -21.2397 O   0  0  0  0  0
   -5.9976   -6.5766  -21.0984 O   0  0  0  0  0
   -5.9656   -9.0230  -20.2351 O   0  0  0  0  0
   -4.0029   -7.4626  -19.4177 O   0  0  0  0  0
   -4.3585   -7.5937  -16.8257 O   0  0  0  0  0
   -4.3792   -9.9094  -18.1182 O   0  0  0  0  0
   -4.7951  -10.0549  -15.5058 O   0  0  0  0  0
   -4.6745  -12.3116  -16.7927 O   0  0  0  0  0
   -2.4273  -10.8202  -16.3264 O   0  0  0  0  0
   -2.0576   -8.4147  -17.7398 O   0  0  0  0  0
   -6.6382   -7.2103  -18.4706 O   0  0  0  0  0
   -6.4147   -2.1535  -21.6245 O   0  0  0  0  0
   -8.9163   -1.5541  -21.3214 O   0  0  0  0  0
  -10.9775   -1.0920  -19.7747 O   0  0  0  0  0
   -8.6133   -0.5035  -18.7760 O   0  0  0  0  0
   -7.2757    0.2985  -16.5309 O   0  0  0  0  0
   -8.8742    3.3230  -17.4253 O   0  0  0  0  0
   -6.7307    3.3594  -15.9363 O   0  0  0  0  0
   -4.3353    4.2420  -15.3461 O   0  0  0  0  0
   -5.2325    4.9497  -17.7467 O   0  0  0  0  0
   -3.6159    5.5803  -19.9021 O   0  0  0  0  0
   -1.2557    5.3423  -17.3268 O   0  0  0  0  0
   -0.7937    7.2773  -18.9684 O   0  0  0  0  0
   -6.2478    6.0042  -15.4189 O   0  0  0  0  0
   -9.7916    1.0152  -20.7674 O   0  0  0  0  0
   -5.6603   -7.6084  -19.7999 P   0  0  0  0  0
   -3.7298   -8.3362  -17.9836 P   0  0  0  0  0
   -4.0834  -10.7349  -16.6544 P   0  0  0  0  0
   -9.6153   -0.5531  -20.1432 P   0  0  0  0  0
   -5.5897    4.6102  -16.1120 P   0  0  0  0  0
  1 16  1  0  0  0
  6 30  1  0  0  0
 11 40  1  0  0  0
 16  4  1  0  0  0
 17  2  1  0  0  0
 17 19  1  0  0  0
 18  1  1  0  0  0
 19  5  1  0  0  0
 20  3  1  0  0  0
 21 20  1  0  0  0
 22  1  1  0  0  0
 22 23  1  0  0  0
 22 47  1  0  0  0
 23 24  1  0  0  0
 23 59  1  0  0  0
 24 25  1  0  0  0
 24 58  1  0  0  0
 25 47  1  0  0  0
 25 26  1  0  0  0
 26 48  1  0  0  0
 27 61  1  0  0  0
 28 27  1  0  0  0
 28 62  1  0  0  0
 29 62  1  0  0  0
 29  6  1  0  0  0
 29 35  1  0  0  0
 30  9  1  0  0  0
 31  7  1  0  0  0
 31 33  1  0  0  0
 32  6  1  0  0  0
 33 10  1  0  0  0
 34  8  1  0  0  0
 35 36  1  0  0  0
 35 64  1  0  0  0
 36 63  1  0  0  0
 36 28  1  0  0  0
 37 66  1  0  0  0
 38 37  1  0  0  0
 38 67  1  0  0  0
 39 67  1  0  0  0
 39 11  1  0  0  0
 39 45  1  0  0  0
 40 14  1  0  0  0
 41 12  1  0  0  0
 41 43  1  0  0  0
 42 11  1  0  0  0
 43 15  1  0  0  0
 44 13  1  0  0  0
 45 46  1  0  0  0
 45 69  1  0  0  0
 46 68  1  0  0  0
 46 38  1  0  0  0
 72 48  1  0  0  0
 72 50  1  0  0  0
 72 57  1  0  0  0
 73 50  1  0  0  0
 73 52  1  0  0  0
 73 56  1  0  0  0
 74 52  1  0  0  0
 74 54  1  0  0  0
 74 55  1  0  0  0
 75 59  1  0  0  0
 75 61  1  0  0  0
 75 71  1  0  0  0
 76 64  1  0  0  0
 76 66  1  0  0  0
 76 70  1  0  0  0
 16 17  2  0  0  0
 18  2  2  0  0  0
 19  3  2  0  0  0
 20  4  2  0  0  0
 30 31  2  0  0  0
 32  7  2  0  0  0
 33  8  2  0  0  0
 34  9  2  0  0  0
 40 41  2  0  0  0
 42 12  2  0  0  0
 43 13  2  0  0  0
 44 14  2  0  0  0
 72 49  2  0  0  0
 73 51  2  0  0  0
 74 53  2  0  0  0
 75 60  2  0  0  0
 76 65  2  0  0  0
M  END
> <rmsd>
0.660815656

$$$$
CHEMBL4523005 PubChem-155543726


 47 49  0  0  0  0  0  0  0  0999 V2000
    0.6841    3.5282  -15.4056 O   0  0  0  0  0
   -0.6104    1.7018  -14.4083 O   0  0  0  0  0
   -1.2272    2.4680  -16.8501 O   0  0  0  0  0
   -7.6286   -2.3321  -20.5829 O   0  0  0  0  0
   -4.0576   -2.9151  -18.8668 O   0  0  0  0  0
   -2.8102   -5.3750  -18.7142 O   0  0  0  0  0
   -1.3824   -3.2952  -19.4950 O   0  0  0  0  0
   -1.4122   -5.2813  -20.9352 O   0  0  0  0  0
   -0.0496   -5.3848  -18.7251 O   0  0  0  0  0
   -4.2047   -7.6535  -19.6728 O   0  0  0  0  0
   -3.6455   -9.8672  -18.3966 O   0  0  0  0  0
   -4.8818   -8.1382  -17.1799 O   0  0  0  0  0
   -2.3406   -7.7786  -17.5962 O   0  0  0  0  0
   -7.8520   -4.8568  -21.1281 O   0  0  0  0  0
  -10.0466   -5.7074  -22.2856 O   0  0  0  0  0
   -7.9468   -6.8359  -22.8581 O   0  0  0  0  0
   -9.0010   -7.3071  -20.5260 O   0  0  0  0  0
   -6.3846   -0.1815  -19.5037 O   0  0  0  0  0
   -8.6839   -0.6771  -18.3314 O   0  0  0  0  0
   -6.8669    0.2292  -16.9601 O   0  0  0  0  0
   -8.0654    1.8270  -18.6222 O   0  0  0  0  0
   -3.1056    3.0681  -18.7803 O   0  0  0  0  0
   -5.6396    3.3836  -19.3930 O   0  0  0  0  0
   -4.0388    5.0254  -20.2522 O   0  0  0  0  0
   -4.0777    2.6698  -21.3494 O   0  0  0  0  0
    1.1188    1.1138  -16.2615 O   0  0  0  0  0
   -0.0034    2.2216  -15.6810 S   0  0  0  0  0
   -1.4134   -4.7971  -19.5116 S   0  0  0  0  0
   -3.7909   -8.3869  -18.1844 S   0  0  0  0  0
   -8.7281   -6.1881  -21.7493 S   0  0  0  0  0
   -7.5183    0.2693  -18.3125 S   0  0  0  0  0
   -4.2549    3.5715  -19.9423 S   0  0  0  0  0
   -2.0437    1.4445  -17.3436 C   0  0  0  0  0
   -1.9188    0.1247  -16.8877 C   0  0  0  0  0
   -2.7420   -0.8808  -17.3978 C   0  0  0  0  0
   -3.7128   -0.5845  -18.3621 C   0  0  0  0  0
   -4.5427   -1.6772  -18.9200 C   0  0  0  0  0
   -5.8098   -1.4533  -19.4946 C   0  0  0  0  0
   -6.5072   -2.5356  -20.0423 C   0  0  0  0  0
   -5.9511   -3.8299  -19.9820 C   0  0  0  0  0
   -6.6022   -4.9724  -20.5029 C   0  0  0  0  0
   -5.9883   -6.2255  -20.3809 C   0  0  0  0  0
   -4.7524   -6.3723  -19.7565 C   0  0  0  0  0
   -4.0813   -5.2397  -19.2701 C   0  0  0  0  0
   -4.6862   -3.9748  -19.3635 C   0  0  0  0  0
   -3.8285    0.7349  -18.8231 C   0  0  0  0  0
   -3.0013    1.7504  -18.3202 C   0  0  0  0  0
 27  3  1  0  0  0
 27 26  1  0  0  0
 28  6  1  0  0  0
 28  9  1  0  0  0
 29 10  1  0  0  0
 29 13  1  0  0  0
 30 14  1  0  0  0
 30 17  1  0  0  0
 31 18  1  0  0  0
 31 21  1  0  0  0
 32 22  1  0  0  0
 32 25  1  0  0  0
 33  3  1  0  0  0
 34 35  1  0  0  0
 36 37  1  0  0  0
 36 46  1  0  0  0
 37  5  1  0  0  0
 38 39  1  0  0  0
 38 18  1  0  0  0
 39 40  1  0  0  0
 41 42  1  0  0  0
 41 14  1  0  0  0
 43 44  1  0  0  0
 43 10  1  0  0  0
 44  6  1  0  0  0
 45  5  1  0  0  0
 45 40  1  0  0  0
 47 22  1  0  0  0
 47 33  1  0  0  0
 27  1  2  0  0  0
 27  2  2  0  0  0
 28  7  2  0  0  0
 28  8  2  0  0  0
 29 11  2  0  0  0
 29 12  2  0  0  0
 30 15  2  0  0  0
 30 16  2  0  0  0
 31 19  2  0  0  0
 31 20  2  0  0  0
 32 23  2  0  0  0
 32 24  2  0  0  0
 33 34  2  0  0  0
 35 36  2  0  0  0
 37 38  2  0  0  0
 39  4  2  0  0  0
 40 41  2  0  0  0
 42 43  2  0  0  0
 44 45  2  0  0  0
 46 47  2  0  0  0
M  CHG  6   9  -1  13  -1  17  -1  21  -1  25  -1  26  -1
M  END
> <rmsd>
0.714588702

$$$$
CHEMBL4646079 MCULE-5133357920 MolPort-035-784-210 MolPort-039-337-546 PubChem-644085 PubChem-644086 PubChem-86030672


 96104  0  0  0  0  0  0  0  0999 V2000
   -6.4309   -6.3589  -25.1779 C   0  0  0  0  0
   -7.8367   -6.7294  -24.8249 C   0  0  0  0  0
   -8.6027   -7.4602  -25.7438 C   0  0  0  0  0
   -9.9261   -7.7986  -25.4468 C   0  0  0  0  0
  -10.4834   -7.4130  -24.2238 C   0  0  0  0  0
   -9.7278   -6.6922  -23.2930 C   0  0  0  0  0
   -8.3963   -6.3480  -23.5920 C   0  0  0  0  0
  -10.3553   -6.2952  -21.9936 C   0  0  0  0  0
   -9.9918   -7.2265  -20.8680 C   0  0  0  0  0
  -10.0233   -8.6192  -21.0564 C   0  0  0  0  0
   -9.7245   -9.4861  -20.0024 C   0  0  0  0  0
   -9.4126   -8.9649  -18.7440 C   0  0  0  0  0
   -9.3999   -7.5838  -18.5345 C   0  0  0  0  0
   -9.6788   -6.7097  -19.5977 C   0  0  0  0  0
   -9.0907   -7.0648  -17.1630 C   0  0  0  0  0
   -7.6375   -6.7383  -16.9721 C   0  0  0  0  0
   -6.6445   -7.5856  -17.4816 C   0  0  0  0  0
   -5.2951   -7.3176  -17.2524 C   0  0  0  0  0
   -4.9269   -6.2051  -16.4950 C   0  0  0  0  0
   -5.9101   -5.3686  -15.9580 C   0  0  0  0  0
   -7.2669   -5.6244  -16.2030 C   0  0  0  0  0
   -5.4855   -4.1969  -15.1324 C   0  0  0  0  0
   -5.2776   -2.9860  -15.9814 C   0  0  0  0  0
   -6.3212   -2.0676  -16.1094 C   0  0  0  0  0
   -6.1798   -0.9497  -16.9306 C   0  0  0  0  0
   -4.9900   -0.7604  -17.6400 C   0  0  0  0  0
   -3.9283   -1.6660  -17.5088 C   0  0  0  0  0
   -4.0706   -2.7807  -16.6712 C   0  0  0  0  0
   -2.6899   -1.5073  -18.3427 C   0  0  0  0  0
   -2.2520   -0.0789  -18.4933 C   0  0  0  0  0
   -2.7044    0.6910  -19.5791 C   0  0  0  0  0
   -2.2587    2.0144  -19.7299 C   0  0  0  0  0
   -1.3976    2.5678  -18.7812 C   0  0  0  0  0
   -0.9634    1.8103  -17.6876 C   0  0  0  0  0
   -1.3867    0.4863  -17.5447 C   0  0  0  0  0
   -2.6796    2.8593  -20.8957 C   0  0  0  0  0
   -2.1649    2.3357  -22.2078 C   0  0  0  0  0
   -2.9410    2.4878  -23.3716 C   0  0  0  0  0
   -2.4383    2.0507  -24.6090 C   0  0  0  0  0
   -1.1712    1.4517  -24.6717 C   0  0  0  0  0
   -0.4033    1.2973  -23.5202 C   0  0  0  0  0
   -0.8926    1.7471  -22.2960 C   0  0  0  0  0
   -3.2351    2.2467  -25.8686 C   0  0  0  0  0
   -3.5428    0.9319  -26.5243 C   0  0  0  0  0
   -4.7841    0.2922  -26.3339 C   0  0  0  0  0
   -5.0333   -0.9474  -26.9542 C   0  0  0  0  0
   -4.0456   -1.5191  -27.7734 C   0  0  0  0  0
   -2.8178   -0.8803  -27.9542 C   0  0  0  0  0
   -2.5640    0.3384  -27.3307 C   0  0  0  0  0
   -6.3936   -1.5739  -26.8150 C   0  0  0  0  0
   -6.4071   -3.0482  -27.0708 C   0  0  0  0  0
   -6.3752   -3.9697  -26.0127 C   0  0  0  0  0
   -6.4043   -5.3500  -26.2817 C   0  0  0  0  0
   -6.4589   -5.8017  -27.6032 C   0  0  0  0  0
   -6.4865   -4.8858  -28.6566 C   0  0  0  0  0
   -6.4594   -3.5130  -28.3888 C   0  0  0  0  0
   -7.6347   -5.6291  -22.6723 O   0  0  0  0  0
   -9.6445   -5.3346  -19.3930 O   0  0  0  0  0
   -8.2410   -4.7695  -15.6972 O   0  0  0  0  0
   -3.0326   -3.6960  -16.5438 O   0  0  0  0  0
    1.4325    1.7668  -16.5334 O   0  0  0  0  0
    0.3665    3.9562  -16.8411 O   0  0  0  0  0
   -0.5622    2.4053  -14.9766 O   0  0  0  0  0
    1.3294   -0.1588  -24.9397 O   0  0  0  0  0
    1.2238   -0.5668  -22.5205 O   0  0  0  0  0
    2.3739    1.6195  -23.3531 O   0  0  0  0  0
   -0.3584   -1.9068  -28.0506 O   0  0  0  0  0
   -2.0599   -2.9457  -29.4664 O   0  0  0  0  0
   -1.1328   -0.6302  -30.1802 O   0  0  0  0  0
   -6.0394   -6.8740  -30.3734 O   0  0  0  0  0
   -7.9239   -5.3984  -30.8453 O   0  0  0  0  0
   -5.5172   -4.5031  -31.2590 O   0  0  0  0  0
   -6.3108   -3.5212  -24.6983 O   0  0  0  0  0
   -5.7592    0.8805  -25.5296 O   0  0  0  0  0
   -4.2048    3.0721  -23.2926 O   0  0  0  0  0
   -3.5916    0.1444  -20.5011 O   0  0  0  0  0
   -7.1811    1.2238  -18.1214 O   0  0  0  0  0
   -7.7153    0.8866  -15.7552 O   0  0  0  0  0
   -8.9095   -0.6062  -17.5166 O   0  0  0  0  0
   -4.4223   -9.8014  -17.6455 O   0  0  0  0  0
   -2.7261   -8.0648  -17.3575 O   0  0  0  0  0
   -4.0104   -8.1435  -19.6098 O   0  0  0  0  0
  -10.2639  -11.9222  -19.0534 O   0  0  0  0  0
   -8.3127  -11.6925  -20.5281 O   0  0  0  0  0
  -10.6842  -11.5859  -21.5891 O   0  0  0  0  0
  -10.7755  -10.1880  -26.2417 O   0  0  0  0  0
  -10.3695   -8.5060  -27.9803 O   0  0  0  0  0
  -12.4828   -8.2458  -26.5110 O   0  0  0  0  0
    0.1241    2.5131  -16.5051 S   0  0  0  0  0
    1.1556    0.4907  -23.5930 S   0  0  0  0  0
   -1.5603   -1.6415  -28.9137 S   0  0  0  0  0
   -6.5228   -5.4564  -30.3118 S   0  0  0  0  0
   -7.5032    0.1979  -17.0726 S   0  0  0  0  0
   -4.0736   -8.3705  -17.9462 S   0  0  0  0  0
   -9.7144  -11.2195  -20.2653 S   0  0  0  0  0
  -10.8798   -8.7314  -26.5827 S   0  0  0  0  0
  1  2  1  0  0  0
  1 53  1  0  0  0
  2  3  1  0  0  0
  4  5  1  0  0  0
  6  7  1  0  0  0
  7 57  1  0  0  0
  8  6  1  0  0  0
  8  9  1  0  0  0
  9 10  1  0  0  0
 11 12  1  0  0  0
 13 14  1  0  0  0
 14 58  1  0  0  0
 15 13  1  0  0  0
 15 16  1  0  0  0
 16 17  1  0  0  0
 18 19  1  0  0  0
 20 21  1  0  0  0
 21 59  1  0  0  0
 22 20  1  0  0  0
 22 23  1  0  0  0
 23 24  1  0  0  0
 25 26  1  0  0  0
 27 28  1  0  0  0
 28 60  1  0  0  0
 29 27  1  0  0  0
 29 30  1  0  0  0
 30 31  1  0  0  0
 31 76  1  0  0  0
 32 33  1  0  0  0
 34 35  1  0  0  0
 36 32  1  0  0  0
 36 37  1  0  0  0
 37 38  1  0  0  0
 38 75  1  0  0  0
 39 40  1  0  0  0
 41 42  1  0  0  0
 43 39  1  0  0  0
 43 44  1  0  0  0
 44 45  1  0  0  0
 45 74  1  0  0  0
 46 47  1  0  0  0
 48 49  1  0  0  0
 50 46  1  0  0  0
 50 51  1  0  0  0
 51 52  1  0  0  0
 52 73  1  0  0  0
 53 54  1  0  0  0
 55 56  1  0  0  0
 89 34  1  0  0  0
 89 63  1  0  0  0
 90 41  1  0  0  0
 90 66  1  0  0  0
 91 48  1  0  0  0
 91 69  1  0  0  0
 92 55  1  0  0  0
 92 72  1  0  0  0
 93 25  1  0  0  0
 93 79  1  0  0  0
 94 18  1  0  0  0
 94 82  1  0  0  0
 95 11  1  0  0  0
 95 85  1  0  0  0
 96  4  1  0  0  0
 96 88  1  0  0  0
  3  4  2  0  0  0
  5  6  2  0  0  0
  7  2  2  0  0  0
 10 11  2  0  0  0
 12 13  2  0  0  0
 14  9  2  0  0  0
 17 18  2  0  0  0
 19 20  2  0  0  0
 21 16  2  0  0  0
 24 25  2  0  0  0
 26 27  2  0  0  0
 28 23  2  0  0  0
 31 32  2  0  0  0
 33 34  2  0  0  0
 35 30  2  0  0  0
 38 39  2  0  0  0
 40 41  2  0  0  0
 42 37  2  0  0  0
 45 46  2  0  0  0
 47 48  2  0  0  0
 49 44  2  0  0  0
 52 53  2  0  0  0
 54 55  2  0  0  0
 56 51  2  0  0  0
 89 61  2  0  0  0
 89 62  2  0  0  0
 90 64  2  0  0  0
 90 65  2  0  0  0
 91 67  2  0  0  0
 91 68  2  0  0  0
 92 70  2  0  0  0
 92 71  2  0  0  0
 93 77  2  0  0  0
 93 78  2  0  0  0
 94 80  2  0  0  0
 94 81  2  0  0  0
 95 83  2  0  0  0
 95 84  2  0  0  0
 96 86  2  0  0  0
 96 87  2  0  0  0
M  END
> <rmsd>
0.772468328

$$$$
CHEMBL54481 MCULE-4391474837 MolPort-020-001-795 PubChem-131856284 PubChem-5199


 62 69  0  0  0  0  0  0  0  0999 V2000
   -4.5940   -4.2820  -16.6884 C   0  0  0  0  0
   -5.1313   -4.4393  -15.3930 C   0  0  0  0  0
   -4.9723   -3.4312  -14.4395 C   0  0  0  0  0
   -4.2701   -2.2645  -14.7471 C   0  0  0  0  0
   -3.7186   -2.1158  -16.0218 C   0  0  0  0  0
   -3.8735   -3.1084  -16.9930 C   0  0  0  0  0
   -3.3185   -2.8597  -18.3755 C   0  0  0  0  0
   -3.1319   -4.1063  -19.2003 C   0  0  0  0  0
   -3.8384   -5.2948  -18.9120 C   0  0  0  0  0
   -3.6419   -6.4274  -19.7322 C   0  0  0  0  0
   -2.7743   -6.3547  -20.8297 C   0  0  0  0  0
   -2.0903   -5.1754  -21.1144 C   0  0  0  0  0
   -2.2663   -4.0575  -20.3006 C   0  0  0  0  0
   -3.6370   -8.6948  -18.7497 C   0  0  0  0  0
   -2.3073   -9.2837  -17.0136 C   0  0  0  0  0
   -1.7149   -8.8199  -15.6994 C   0  0  0  0  0
   -1.2308  -10.0131  -17.8247 C   0  0  0  0  0
   -1.4160   -9.8306  -19.3374 C   0  0  0  0  0
   -2.9000   -9.6737  -19.6984 C   0  0  0  0  0
   -4.7284   -5.3309  -17.7260 C   0  0  0  0  0
   -4.0721   -1.7628  -19.1597 C   0  0  0  0  0
   -3.6649   -0.3903  -18.6895 C   0  0  0  0  0
   -2.3540    0.0349  -18.9519 C   0  0  0  0  0
   -1.8962    1.2538  -18.4631 C   0  0  0  0  0
   -2.7398    2.0540  -17.6977 C   0  0  0  0  0
   -4.0613    1.6571  -17.4239 C   0  0  0  0  0
   -4.4524    3.5933  -15.8928 C   0  0  0  0  0
   -4.7061    5.3907  -17.3105 C   0  0  0  0  0
   -4.0597    6.1375  -18.4569 C   0  0  0  0  0
   -5.2513    6.3792  -16.2794 C   0  0  0  0  0
   -5.4351    5.7180  -14.9030 C   0  0  0  0  0
   -5.5730    4.1964  -15.0100 C   0  0  0  0  0
   -4.5367    0.4223  -17.9311 C   0  0  0  0  0
   -5.9271   -0.0476  -17.6895 C   0  0  0  0  0
   -6.4584   -1.1980  -18.4595 C   0  0  0  0  0
   -7.8338   -1.5116  -18.4813 C   0  0  0  0  0
   -8.2958   -2.5728  -19.2590 C   0  0  0  0  0
   -7.4106   -3.3326  -20.0280 C   0  0  0  0  0
   -7.9060   -4.4363  -20.8625 C   0  0  0  0  0
   -6.0489   -3.0303  -19.9988 C   0  0  0  0  0
   -5.5637   -1.9826  -19.2162 C   0  0  0  0  0
   -4.1241   -1.1990  -13.7472 C   0  0  0  0  0
   -5.8138   -5.5944  -15.0306 O   0  0  0  0  0
   -4.2857   -7.6331  -19.4467 O   0  0  0  0  0
   -2.8024   -8.1822  -17.7338 O   0  0  0  0  0
   -2.6983   -8.2278  -14.9203 O   0  0  0  0  0
   -0.6955   -8.7077  -19.7585 O   0  0  0  0  0
   -3.0649   -9.3483  -21.0466 O   0  0  0  0  0
   -1.2446  -11.3699  -17.5064 O   0  0  0  0  0
   -5.5977   -6.2374  -17.6074 O   0  0  0  0  0
   -4.9055    2.4767  -16.6606 O   0  0  0  0  0
   -3.7646    4.5411  -16.7003 O   0  0  0  0  0
   -3.9151    5.2816  -19.5502 O   0  0  0  0  0
   -4.3445    6.0401  -14.0863 O   0  0  0  0  0
   -6.8373    3.8749  -15.5173 O   0  0  0  0  0
   -6.4757    6.8876  -16.7212 O   0  0  0  0  0
   -8.7578   -0.7740  -17.7488 O   0  0  0  0  0
   -9.2548   -4.7672  -20.8661 O   0  0  0  0  0
   -7.1135   -5.0799  -21.5934 O   0  0  0  0  0
   -6.6514    0.5257  -16.8300 O   0  0  0  0  0
   -4.6508   -1.3533  -12.4708 O   0  0  0  0  0
   -3.5142   -0.1373  -14.0352 O   0  0  0  0  0
  2 43  1  0  0  0
  2  3  1  0  0  0
  4  5  1  0  0  0
  4 42  1  0  0  0
  6  1  1  0  0  0
  7  6  1  0  0  0
  7  8  1  0  0  0
  7 21  1  0  0  0
  9 10  1  0  0  0
  9 20  1  0  0  0
 10 44  1  0  0  0
 11 12  1  0  0  0
 13  8  1  0  0  0
 14 44  1  0  0  0
 14 45  1  0  0  0
 15 45  1  0  0  0
 15 16  1  0  0  0
 15 17  1  0  0  0
 16 46  1  0  0  0
 17 18  1  0  0  0
 17 49  1  0  0  0
 18 47  1  0  0  0
 18 19  1  0  0  0
 19 48  1  0  0  0
 19 14  1  0  0  0
 20  1  1  0  0  0
 21 22  1  0  0  0
 21 41  1  0  0  0
 23 24  1  0  0  0
 25 26  1  0  0  0
 26 51  1  0  0  0
 27 51  1  0  0  0
 27 52  1  0  0  0
 28 52  1  0  0  0
 28 29  1  0  0  0
 28 30  1  0  0  0
 29 53  1  0  0  0
 30 31  1  0  0  0
 30 56  1  0  0  0
 31 54  1  0  0  0
 31 32  1  0  0  0
 32 55  1  0  0  0
 32 27  1  0  0  0
 33 34  1  0  0  0
 33 22  1  0  0  0
 34 35  1  0  0  0
 36 57  1  0  0  0
 36 37  1  0  0  0
 38 39  1  0  0  0
 38 40  1  0  0  0
 39 58  1  0  0  0
 41 35  1  0  0  0
 42 61  1  0  0  0
  1  2  2  0  0  0
  3  4  2  0  0  0
  5  6  2  0  0  0
  8  9  2  0  0  0
 10 11  2  0  0  0
 12 13  2  0  0  0
 20 50  2  0  0  0
 22 23  2  0  0  0
 24 25  2  0  0  0
 26 33  2  0  0  0
 34 60  2  0  0  0
 35 36  2  0  0  0
 37 38  2  0  0  0
 39 59  2  0  0  0
 40 41  2  0  0  0
 42 62  2  0  0  0
M  END
> <rmsd>
0.786333621

$$$$
CHEMBL504094 PubChem-16175788


 78 87  0  0  0  0  0  0  0  0999 V2000
   -6.7176   -1.3852  -17.5460 C   0  0  0  0  0
   -7.7024   -1.4100  -18.5380 C   0  0  0  0  0
   -7.8294   -2.5192  -19.3995 C   0  0  0  0  0
   -6.9264   -3.6125  -19.2760 C   0  0  0  0  0
   -5.9466   -3.5631  -18.2638 C   0  0  0  0  0
   -5.8401   -2.4589  -17.3992 C   0  0  0  0  0
   -4.0628   -3.4480  -16.2389 C   0  0  0  0  0
   -4.1119   -4.5900  -17.0571 C   0  0  0  0  0
   -3.2356   -5.6716  -16.8930 C   0  0  0  0  0
   -3.3083   -6.7738  -17.7543 C   0  0  0  0  0
   -4.2632   -6.8050  -18.7836 C   0  0  0  0  0
   -5.1517   -5.7338  -18.9466 C   0  0  0  0  0
   -5.0665   -4.6296  -18.0854 C   0  0  0  0  0
   -6.9424   -4.7664  -20.1063 C   0  0  0  0  0
   -8.9825   -2.5467  -20.3283 C   0  0  0  0  0
  -10.1964   -3.0957  -19.8642 C   0  0  0  0  0
  -11.3311   -3.1004  -20.6814 C   0  0  0  0  0
  -11.2655   -2.5582  -21.9651 C   0  0  0  0  0
  -10.0695   -2.0174  -22.4337 C   0  0  0  0  0
   -8.9155   -2.0009  -21.6376 C   0  0  0  0  0
   -7.6846   -1.4185  -22.2251 C   0  0  0  0  0
   -5.2396   -1.1155  -22.2250 C   0  0  0  0  0
   -4.1116   -0.9869  -21.1949 C   0  0  0  0  0
   -3.2954   -2.2735  -21.0503 C   0  0  0  0  0
   -3.9907   -3.4347  -21.7596 C   0  0  0  0  0
   -4.8533   -2.0173  -23.4280 C   0  0  0  0  0
   -4.1282   -1.1966  -24.4829 C   0  0  0  0  0
   -4.5029    0.7676  -25.9107 C   0  0  0  0  0
   -5.3947    1.8370  -26.3852 C   0  0  0  0  0
   -4.9331    2.7937  -27.3012 C   0  0  0  0  0
   -5.7809    3.8115  -27.7486 C   0  0  0  0  0
   -7.1016    3.8774  -27.2814 C   0  0  0  0  0
   -7.5676    2.9227  -26.3672 C   0  0  0  0  0
   -6.7152    1.9091  -25.9214 C   0  0  0  0  0
   -1.8120   -2.6028  -19.1213 C   0  0  0  0  0
   -0.7769   -1.6654  -19.5735 C   0  0  0  0  0
   -0.9128   -0.2730  -19.3909 C   0  0  0  0  0
   -2.0717    0.2998  -18.6560 C   0  0  0  0  0
   -3.0437    1.0743  -19.3278 C   0  0  0  0  0
   -3.0429    1.1943  -20.7918 C   0  0  0  0  0
   -4.0443    1.7218  -18.6000 C   0  0  0  0  0
   -4.1073    1.5868  -17.2131 C   0  0  0  0  0
   -3.1753    0.7878  -16.5408 C   0  0  0  0  0
   -2.1545    0.1527  -17.2568 C   0  0  0  0  0
    0.1001    0.5827  -19.8679 C   0  0  0  0  0
    1.2253    0.0558  -20.5154 C   0  0  0  0  0
    1.3538   -1.3259  -20.6804 C   0  0  0  0  0
    0.3568   -2.1791  -20.2087 C   0  0  0  0  0
   -4.9149   -2.4438  -16.4403 O   0  0  0  0  0
   -3.2124   -3.3583  -15.3134 O   0  0  0  0  0
   -6.0686   -5.7542  -19.9085 O   0  0  0  0  0
   -7.7693   -4.8830  -21.0476 O   0  0  0  0  0
   -4.3270   -7.8974  -19.6419 O   0  0  0  0  0
   -2.4269   -7.8346  -17.5845 O   0  0  0  0  0
   -7.7639   -0.7806  -23.3130 O   0  0  0  0  0
   -6.4358   -1.5845  -21.6141 O   0  0  0  0  0
   -4.0662   -3.1685  -23.1406 O   0  0  0  0  0
   -4.9676   -0.1639  -24.9797 O   0  0  0  0  0
   -3.3181    0.6991  -26.3408 O   0  0  0  0  0
   -8.8747    2.9773  -25.8975 O   0  0  0  0  0
   -7.9486    4.8878  -27.7234 O   0  0  0  0  0
   -5.3075    4.7516  -28.6570 O   0  0  0  0  0
   -3.2724   -4.6140  -21.5600 O   0  0  0  0  0
   -3.0928   -2.5900  -19.6786 O   0  0  0  0  0
   -1.5354   -3.4301  -18.2149 O   0  0  0  0  0
   -2.8073    2.3102  -21.3250 O   0  0  0  0  0
   -3.2652    0.0798  -21.6017 O   0  0  0  0  0
   -1.2092   -0.6040  -16.5715 O   0  0  0  0  0
   -3.2543    0.6356  -15.1591 O   0  0  0  0  0
   -5.1026    2.2483  -16.5061 O   0  0  0  0  0
    2.4720   -1.8562  -21.3125 O   0  0  0  0  0
    2.2204    0.9066  -20.9858 O   0  0  0  0  0
   -0.0013    1.9582  -19.6875 O   0  0  0  0  0
  -12.3870   -2.5565  -22.7837 O   0  0  0  0  0
  -12.5251   -3.6420  -20.2159 O   0  0  0  0  0
  -10.2770   -3.6373  -18.5849 O   0  0  0  0  0
   -8.5741   -0.3309  -18.6537 O   0  0  0  0  0
   -6.6303   -0.2967  -16.6862 O   0  0  0  0  0
  1 78  1  0  0  0
  2  3  1  0  0  0
  2 77  1  0  0  0
  3 15  1  0  0  0
  4  5  1  0  0  0
  6 49  1  0  0  0
  6  1  1  0  0  0
  7 49  1  0  0  0
  7  8  1  0  0  0
  9 10  1  0  0  0
 10 54  1  0  0  0
 11 12  1  0  0  0
 11 53  1  0  0  0
 12 51  1  0  0  0
 13  8  1  0  0  0
 13  5  1  0  0  0
 14 51  1  0  0  0
 14  4  1  0  0  0
 16 17  1  0  0  0
 16 76  1  0  0  0
 17 75  1  0  0  0
 18 19  1  0  0  0
 18 74  1  0  0  0
 20 21  1  0  0  0
 20 15  1  0  0  0
 21 56  1  0  0  0
 22 56  1  0  0  0
 22 23  1  0  0  0
 23 24  1  0  0  0
 23 67  1  0  0  0
 24 25  1  0  0  0
 24 64  1  0  0  0
 25 57  1  0  0  0
 25 63  1  0  0  0
 26 57  1  0  0  0
 26 27  1  0  0  0
 26 22  1  0  0  0
 27 58  1  0  0  0
 28 58  1  0  0  0
 28 29  1  0  0  0
 30 31  1  0  0  0
 31 62  1  0  0  0
 32 33  1  0  0  0
 32 61  1  0  0  0
 33 60  1  0  0  0
 34 29  1  0  0  0
 35 64  1  0  0  0
 35 36  1  0  0  0
 37 38  1  0  0  0
 37 45  1  0  0  0
 39 40  1  0  0  0
 39 41  1  0  0  0
 40 67  1  0  0  0
 42 43  1  0  0  0
 42 70  1  0  0  0
 43 69  1  0  0  0
 44 68  1  0  0  0
 44 38  1  0  0  0
 45 73  1  0  0  0
 46 47  1  0  0  0
 46 72  1  0  0  0
 47 71  1  0  0  0
 48 36  1  0  0  0
  1  2  2  0  0  0
  3  4  2  0  0  0
  5  6  2  0  0  0
  7 50  2  0  0  0
  8  9  2  0  0  0
 10 11  2  0  0  0
 12 13  2  0  0  0
 14 52  2  0  0  0
 15 16  2  0  0  0
 17 18  2  0  0  0
 19 20  2  0  0  0
 21 55  2  0  0  0
 28 59  2  0  0  0
 29 30  2  0  0  0
 31 32  2  0  0  0
 33 34  2  0  0  0
 35 65  2  0  0  0
 36 37  2  0  0  0
 38 39  2  0  0  0
 40 66  2  0  0  0
 41 42  2  0  0  0
 43 44  2  0  0  0
 45 46  2  0  0  0
 47 48  2  0  0  0
M  END
> <rmsd>
0.708609223

$$$$
CHEMBL453951 PubChem-44186039


 42 46  0  0  0  0  0  0  0  0999 V2000
   -3.1782   -3.1738  -19.8799 C   0  0  0  0  0
   -3.8542   -0.8639  -20.6855 C   0  0  0  0  0
   -5.1070    0.0181  -20.6551 C   0  0  0  0  0
   -5.4344    0.5303  -19.2585 C   0  0  0  0  0
   -7.6569   -1.7264  -19.0906 C   0  0  0  0  0
   -8.1673   -1.8661  -20.3847 C   0  0  0  0  0
   -8.1057   -3.1027  -21.0321 C   0  0  0  0  0
   -7.5306   -4.2108  -20.3887 C   0  0  0  0  0
   -7.0171   -4.0642  -19.0958 C   0  0  0  0  0
   -7.0785   -2.8268  -18.4485 C   0  0  0  0  0
   -7.9458   -5.6972  -22.3217 C   0  0  0  0  0
   -6.8101    2.2449  -18.4569 C   0  0  0  0  0
   -6.6609    3.4294  -19.3987 C   0  0  0  0  0
   -7.9600    3.6371  -20.2062 C   0  0  0  0  0
   -7.5483    5.4927  -18.9534 C   0  0  0  0  0
   -2.5302   -0.1120  -20.4524 C   0  0  0  0  0
   -2.3840    0.4776  -19.0840 C   0  0  0  0  0
   -2.3688    1.8687  -18.9337 C   0  0  0  0  0
   -2.2277    2.4363  -17.6638 C   0  0  0  0  0
   -2.0934    1.6135  -16.5415 C   0  0  0  0  0
   -2.0959    0.2232  -16.6891 C   0  0  0  0  0
   -2.2372   -0.3442  -17.9588 C   0  0  0  0  0
   -2.5934   -5.4035  -18.9842 C   0  0  0  0  0
   -2.8539   -6.2161  -17.7454 C   0  0  0  0  0
   -2.9321   -7.7151  -19.4277 C   0  0  0  0  0
   -2.9307   -6.3599  -20.1045 C   0  0  0  0  0
   -4.3352   -6.2185  -20.6190 C   0  0  0  0  0
   -4.8461   -7.6330  -20.6027 C   0  0  0  0  0
   -2.2684   -3.2486  -20.7510 O   0  0  0  0  0
   -7.1508   -0.2825  -16.9046 O   0  0  0  0  0
   -9.1540    0.2780  -18.1950 O   0  0  0  0  0
   -7.4599   -5.4617  -21.0074 O   0  0  0  0  0
   -8.4168    4.9350  -19.8588 O   0  0  0  0  0
   -7.6992    6.6420  -18.4646 O   0  0  0  0  0
   -4.9766    1.0866  -21.5439 O   0  0  0  0  0
   -3.3914   -4.2225  -18.9832 O   0  0  0  0  0
   -2.6298   -7.5663  -18.0590 O   0  0  0  0  0
   -4.1955   -8.3205  -19.5685 O   0  0  0  0  0
   -4.0042   -2.0121  -19.7981 N   0  0  0  0  0
   -6.8108    0.9979  -19.2084 N   0  0  0  0  0
   -6.4703    4.6476  -18.6229 N   0  0  0  0  0
   -7.7203   -0.1634  -18.2927 S   0  0  0  0  0
  1 39  1  0  0  0
  1 36  1  0  0  0
  2 39  1  0  0  0
  2  3  1  0  0  0
  2 16  1  0  0  0
  3  4  1  0  0  0
  3 35  1  0  0  0
  4 40  1  0  0  0
  6  7  1  0  0  0
  8  9  1  0  0  0
  8 32  1  0  0  0
 10  5  1  0  0  0
 11 32  1  0  0  0
 12 40  1  0  0  0
 13 12  1  0  0  0
 13 14  1  0  0  0
 13 41  1  0  0  0
 14 33  1  0  0  0
 15 33  1  0  0  0
 15 41  1  0  0  0
 16 17  1  0  0  0
 18 19  1  0  0  0
 20 21  1  0  0  0
 22 17  1  0  0  0
 23 36  1  0  0  0
 23 24  1  0  0  0
 24 37  1  0  0  0
 25 37  1  0  0  0
 25 26  1  0  0  0
 25 38  1  0  0  0
 26 27  1  0  0  0
 26 23  1  0  0  0
 27 28  1  0  0  0
 28 38  1  0  0  0
 42 40  1  0  0  0
 42  5  1  0  0  0
  1 29  2  0  0  0
  5  6  2  0  0  0
  7  8  2  0  0  0
  9 10  2  0  0  0
 15 34  2  0  0  0
 17 18  2  0  0  0
 19 20  2  0  0  0
 21 22  2  0  0  0
 42 30  2  0  0  0
 42 31  2  0  0  0
M  END
> <rmsd>
0.761659443

$$$$
CHEMBL1240814 PubChem-135908307 PubChem-136259995


 52 56  0  0  0  0  0  0  0  0999 V2000
   -3.7639    3.1541  -18.0375 N   0  0  0  0  0
   -1.8559    4.4363  -17.4263 N   0  0  0  0  0
   -0.9730    1.2095  -18.8982 N   0  0  0  0  0
   -3.2300    1.0111  -19.0235 N   0  0  0  0  0
   -8.2933   -3.3236  -26.7255 N   0  0  0  0  0
   -6.7442   -3.8740  -28.4220 N   0  0  0  0  0
   -6.8576   -2.8726  -30.6094 N   0  0  0  0  0
   -6.3221   -4.5852  -18.6355 N   0  0  0  0  0
   -4.0712    5.3337  -17.0499 N   0  0  0  0  0
   -3.2190    4.2912  -17.5097 C   0  0  0  0  0
   -1.0087    3.4573  -17.8663 C   0  0  0  0  0
   -1.5728    2.3026  -18.3910 C   0  0  0  0  0
   -2.0254    0.4298  -19.2797 C   0  0  0  0  0
   -2.9173    2.1859  -18.4688 C   0  0  0  0  0
   -4.5731    0.5134  -19.3273 C   0  0  0  0  0
   -6.1780   -0.7669  -18.4680 C   0  0  0  0  0
   -5.4820   -1.6823  -19.4354 C   0  0  0  0  0
   -4.5429   -0.7563  -20.1713 C   0  0  0  0  0
   -4.0153   -0.9973  -22.3101 C   0  0  0  0  0
   -6.7419   -4.1817  -22.5899 C   0  0  0  0  0
   -8.0515   -3.8886  -23.3056 C   0  0  0  0  0
   -8.6908   -5.1815  -23.7695 C   0  0  0  0  0
   -9.3459   -4.8049  -25.0670 C   0  0  0  0  0
   -8.8089   -3.4188  -25.3598 C   0  0  0  0  0
   -8.9211   -2.4613  -27.5710 C   0  0  0  0  0
   -8.4699   -2.2938  -28.8760 C   0  0  0  0  0
   -7.3617   -3.0271  -29.2874 C   0  0  0  0  0
   -7.1980   -4.0299  -27.1512 C   0  0  0  0  0
   -5.5235   -5.7897  -18.4500 C   0  0  0  0  0
   -6.2763   -7.0098  -18.9682 C   0  0  0  0  0
   -5.4253   -8.2612  -18.8035 C   0  0  0  0  0
   -6.5936   -1.5484  -17.2282 C   0  0  0  0  0
    0.2405    3.6036  -17.7933 O   0  0  0  0  0
   -5.2768    0.2543  -18.1365 O   0  0  0  0  0
   -4.9947   -0.4664  -21.4667 O   0  0  0  0  0
   -6.4073   -2.3022  -20.2840 O   0  0  0  0  0
   -4.5576   -4.1489  -20.6164 O   0  0  0  0  0
   -6.9930   -4.7871  -21.3553 O   0  0  0  0  0
   -7.8072   -3.0915  -24.4310 O   0  0  0  0  0
   -6.5980   -4.8272  -26.3792 O   0  0  0  0  0
  -10.7296   -4.7297  -24.8810 O   0  0  0  0  0
   -4.2647   -8.1654  -19.5840 O   0  0  0  0  0
   -2.7215   -8.1766  -17.4564 O   0  0  0  0  0
   -3.5644  -10.5198  -18.2796 O   0  0  0  0  0
   -1.6722   -9.0838  -19.6693 O   0  0  0  0  0
   -7.3184   -0.7325  -16.3498 O   0  0  0  0  0
   -9.2694   -2.3648  -17.1568 O   0  0  0  0  0
   -9.8979   -0.5597  -15.3696 O   0  0  0  0  0
   -9.3834    0.1248  -17.9892 O   0  0  0  0  0
   -6.0148   -3.9551  -20.2483 P   0  0  0  0  0
   -3.0550   -8.9635  -18.7056 P   0  0  0  0  0
   -8.9695   -0.9367  -16.7337 P   0  0  0  0  0
  2 11  1  0  0  0
  4 14  1  0  0  0
  5 25  1  0  0  0
 10  2  1  0  0  0
 10  9  1  0  0  0
 11 12  1  0  0  0
 12  3  1  0  0  0
 13  4  1  0  0  0
 14  1  1  0  0  0
 15  4  1  0  0  0
 15 34  1  0  0  0
 16 34  1  0  0  0
 16 17  1  0  0  0
 16 32  1  0  0  0
 17 18  1  0  0  0
 17 36  1  0  0  0
 18 35  1  0  0  0
 18 15  1  0  0  0
 19 35  1  0  0  0
 20 38  1  0  0  0
 21 20  1  0  0  0
 21 22  1  0  0  0
 21 39  1  0  0  0
 22 23  1  0  0  0
 23 24  1  0  0  0
 23 41  1  0  0  0
 24 39  1  0  0  0
 24  5  1  0  0  0
 26 27  1  0  0  0
 27  7  1  0  0  0
 28  6  1  0  0  0
 28  5  1  0  0  0
 29  8  1  0  0  0
 29 30  1  0  0  0
 30 31  1  0  0  0
 31 42  1  0  0  0
 32 46  1  0  0  0
 50 36  1  0  0  0
 50 38  1  0  0  0
 50  8  1  0  0  0
 51 42  1  0  0  0
 51 44  1  0  0  0
 51 45  1  0  0  0
 52 46  1  0  0  0
 52 48  1  0  0  0
 52 49  1  0  0  0
 10  1  2  0  0  0
 11 33  2  0  0  0
 13  3  2  0  0  0
 14 12  2  0  0  0
 25 26  2  0  0  0
 27  6  2  0  0  0
 28 40  2  0  0  0
 50 37  2  0  0  0
 51 43  2  0  0  0
 52 47  2  0  0  0
M  CHG  4  44  -1  45  -1  48  -1  49  -1
M  END
> <rmsd>
0.773620486

$$$$
CHEMBL328301 PubChem-15173616


 43 46  0  0  0  0  0  0  0  0999 V2000
   -4.6527   -8.4740  -17.2343 C   0  0  0  0  0
   -4.1365   -8.2833  -18.6476 C   0  0  0  0  0
   -3.9815   -9.6506  -19.2919 C   0  0  0  0  0
   -5.7949   -6.5835  -21.4239 C   0  0  0  0  0
   -6.9968   -5.9857  -20.7884 C   0  0  0  0  0
   -8.1186   -5.0569  -18.7040 C   0  0  0  0  0
   -8.2680   -3.6004  -19.0215 C   0  0  0  0  0
   -7.3710   -2.1295  -16.9216 C   0  0  0  0  0
   -7.7252   -0.7628  -17.3907 C   0  0  0  0  0
   -6.5270   -2.3802  -15.8879 C   0  0  0  0  0
   -5.7841   -1.3100  -15.1533 C   0  0  0  0  0
   -3.9671    0.3851  -15.6087 C   0  0  0  0  0
   -2.9983    0.9781  -16.5481 C   0  0  0  0  0
   -2.2626    2.1151  -16.1872 C   0  0  0  0  0
   -1.3550    2.6851  -17.0849 C   0  0  0  0  0
   -1.1734    2.1196  -18.3553 C   0  0  0  0  0
   -1.9044    0.9812  -18.7211 C   0  0  0  0  0
   -2.8127    0.4176  -17.8197 C   0  0  0  0  0
   -6.3300   -3.7852  -15.3744 C   0  0  0  0  0
   -7.8114   -4.6718  -17.3432 C   0  0  0  0  0
   -5.5427   -6.4120  -22.8733 C   0  0  0  0  0
   -4.4003   -6.9228  -23.5013 C   0  0  0  0  0
   -5.9500   -5.6877  -24.9528 C   0  0  0  0  0
   -2.8028   -7.5913  -18.5917 C   0  0  0  0  0
   -5.0896   -7.5144  -19.3766 O   0  0  0  0  0
   -8.0413   -5.7881  -21.4671 O   0  0  0  0  0
   -8.5481   -2.9450  -20.0578 O   0  0  0  0  0
   -7.3973    0.2635  -16.7390 O   0  0  0  0  0
   -8.4856   -0.6008  -18.5403 O   0  0  0  0  0
   -4.1103    0.8733  -14.4531 O   0  0  0  0  0
   -0.6395    3.8161  -16.7139 O   0  0  0  0  0
   -0.2697    2.6872  -19.2464 O   0  0  0  0  0
   -2.6519   -6.4381  -19.0793 O   0  0  0  0  0
   -1.7244   -8.2162  -17.9743 O   0  0  0  0  0
   -4.9323   -7.2620  -20.7240 N   0  0  0  0  0
   -6.9662   -5.6083  -19.4090 N   0  0  0  0  0
   -7.8832   -3.2622  -17.6319 N   0  0  0  0  0
   -4.7594   -0.7337  -16.0138 N   0  0  0  0  0
   -6.6456   -5.0368  -26.0090 N   0  0  0  0  0
   -6.3969   -5.7239  -23.6836 N   0  0  0  0  0
   -1.6802    0.1744  -20.4379 Br  0  0  0  0  0
   -6.1287   -5.0201  -16.7132 S   0  0  0  0  0
   -4.4944   -6.4917  -25.1287 S   0  0  0  0  0
  1  2  1  0  0  0
  2  3  1  0  0  0
  2 25  1  0  0  0
  2 24  1  0  0  0
  4  5  1  0  0  0
  4 21  1  0  0  0
  5 36  1  0  0  0
  6 36  1  0  0  0
  6  7  1  0  0  0
  7 37  1  0  0  0
  8  9  1  0  0  0
  9 29  1  0  0  0
 11 10  1  0  0  0
 11 38  1  0  0  0
 12 13  1  0  0  0
 14 15  1  0  0  0
 15 31  1  0  0  0
 16 32  1  0  0  0
 16 17  1  0  0  0
 17 41  1  0  0  0
 18 13  1  0  0  0
 19 10  1  0  0  0
 19 42  1  0  0  0
 20 42  1  0  0  0
 20  6  1  0  0  0
 20 37  1  0  0  0
 21 40  1  0  0  0
 22 43  1  0  0  0
 23 43  1  0  0  0
 23 39  1  0  0  0
 24 34  1  0  0  0
 25 35  1  0  0  0
 37  8  1  0  0  0
 38 12  1  0  0  0
  4 35  2  0  0  0
  5 26  2  0  0  0
  7 27  2  0  0  0
  8 10  2  0  0  0
  9 28  2  0  0  0
 12 30  2  0  0  0
 13 14  2  0  0  0
 15 16  2  0  0  0
 17 18  2  0  0  0
 21 22  2  0  0  0
 23 40  2  0  0  0
 24 33  2  0  0  0
M  END
> <rmsd>
0.707776427

$$$$
CHEMBL267824 PubChem-44413875


 93104  0  0  0  0  0  0  0  0999 V2000
   -3.9639  -23.5911  -15.3104 N   0  0  0  0  0
   -5.5110  -21.8282  -14.9210 N   0  0  0  0  0
   -2.1462  -24.0612  -13.7754 N   0  0  0  0  0
   -3.2757  -21.7546  -12.2241 N   0  0  0  0  0
   -5.1133  -20.6031  -12.8733 N   0  0  0  0  0
   -5.7206  -11.8067  -17.3648 N   0  0  0  0  0
   -5.9942  -12.2875  -15.0068 N   0  0  0  0  0
   -7.7319  -11.0385  -13.9675 N   0  0  0  0  0
   -7.3560  -10.2439  -17.5145 N   0  0  0  0  0
   -9.0765   -9.4368  -15.1915 N   0  0  0  0  0
   -6.7296   -5.4640  -16.2217 N   0  0  0  0  0
   -4.4884   -4.5629  -16.1024 N   0  0  0  0  0
   -4.3618   -2.4395  -15.0401 N   0  0  0  0  0
   -7.7669   -3.7558  -15.1658 N   0  0  0  0  0
   -6.3288   -1.3269  -14.1827 N   0  0  0  0  0
   -3.9981    0.5769  -17.8857 N   0  0  0  0  0
   -2.2146   -0.7288  -16.9133 N   0  0  0  0  0
   -0.0478    0.2035  -17.2305 N   0  0  0  0  0
   -2.6905    2.2281  -18.7338 N   0  0  0  0  0
    0.2864    2.2843  -18.4225 N   0  0  0  0  0
   -5.0630  -22.8634  -15.6930 C   0  0  0  0  0
   -4.8413  -21.5538  -13.7756 C   0  0  0  0  0
   -3.7502  -22.2433  -13.3863 C   0  0  0  0  0
   -3.2843  -23.2963  -14.1635 C   0  0  0  0  0
   -4.1406  -20.7381  -11.9368 C   0  0  0  0  0
   -6.2010  -19.6249  -12.8611 C   0  0  0  0  0
   -5.9378  -18.4224  -13.7489 C   0  0  0  0  0
   -3.7494  -15.1952  -15.5910 C   0  0  0  0  0
   -3.6957  -14.6223  -17.0002 C   0  0  0  0  0
   -2.5835  -13.5922  -17.0800 C   0  0  0  0  0
   -3.3395  -12.2918  -17.1552 C   0  0  0  0  0
   -4.6517  -12.7175  -17.7557 C   0  0  0  0  0
   -6.2833  -11.6358  -16.1600 C   0  0  0  0  0
   -6.7358  -11.9807  -13.8998 C   0  0  0  0  0
   -8.0116  -10.3812  -15.1303 C   0  0  0  0  0
   -7.2572  -10.7040  -16.2514 C   0  0  0  0  0
   -6.3874  -10.9470  -18.1743 C   0  0  0  0  0
   -3.2741   -7.9328  -16.8371 C   0  0  0  0  0
   -4.6886   -7.9186  -17.3885 C   0  0  0  0  0
   -4.7787   -6.9598  -18.5510 C   0  0  0  0  0
   -6.1670   -6.4279  -18.4473 C   0  0  0  0  0
   -6.5449   -6.6923  -16.9920 C   0  0  0  0  0
   -5.8216   -4.5494  -15.8631 C   0  0  0  0  0
   -3.7556   -3.4917  -15.6746 C   0  0  0  0  0
   -5.7066   -2.4367  -14.8077 C   0  0  0  0  0
   -6.4427   -3.5297  -15.2376 C   0  0  0  0  0
   -7.9081   -4.9640  -15.7832 C   0  0  0  0  0
   -6.6198   -2.4811  -19.8351 C   0  0  0  0  0
   -6.5005   -1.7420  -18.5138 C   0  0  0  0  0
   -7.2872   -0.4585  -18.5694 C   0  0  0  0  0
   -6.4678    0.4985  -17.7438 C   0  0  0  0  0
   -5.1577   -0.2393  -17.5263 C   0  0  0  0  0
   -2.7178    0.3205  -17.6095 C   0  0  0  0  0
   -0.8609   -0.7841  -16.7310 C   0  0  0  0  0
   -0.5649    1.2631  -17.9193 C   0  0  0  0  0
   -1.9390    1.3039  -18.1101 C   0  0  0  0  0
   -3.9572    1.7465  -18.5849 C   0  0  0  0  0
   -7.3269  -18.0025  -14.1361 C   0  0  0  0  0
   -8.2192  -19.1349  -13.6643 C   0  0  0  0  0
   -9.1167  -19.5705  -14.8076 C   0  0  0  0  0
   -5.2400  -18.7924  -14.9033 O   0  0  0  0  0
   -3.2133  -17.4759  -13.8519 O   0  0  0  0  0
   -4.7838  -16.1290  -15.4811 O   0  0  0  0  0
   -4.9318  -14.0212  -17.3191 O   0  0  0  0  0
   -2.7101  -11.3532  -17.9808 O   0  0  0  0  0
   -0.6147  -10.3052  -16.8387 O   0  0  0  0  0
   -2.4230   -8.6293  -17.6971 O   0  0  0  0  0
   -5.5735   -7.5027  -16.3788 O   0  0  0  0  0
   -6.1750   -5.0632  -18.7551 O   0  0  0  0  0
   -8.7057   -5.5531  -19.3283 O   0  0  0  0  0
   -7.8471   -3.1492  -19.8940 O   0  0  0  0  0
   -5.1549   -1.4280  -18.2770 O   0  0  0  0  0
   -7.0626    0.7495  -16.5026 O   0  0  0  0  0
   -5.5304    2.8434  -16.0919 O   0  0  0  0  0
   -7.8477    2.8645  -14.8982 O   0  0  0  0  0
   -7.6175    3.2311  -17.6171 O   0  0  0  0  0
   -8.5732   -0.6454  -18.0487 O   0  0  0  0  0
   -7.0753   -5.3712  -21.3565 O   0  0  0  0  0
   -4.6252   -7.6461  -19.7565 O   0  0  0  0  0
   -2.7904  -10.2194  -15.4091 O   0  0  0  0  0
   -1.8478  -13.8157  -18.2478 O   0  0  0  0  0
   -3.0407  -18.0724  -16.3940 O   0  0  0  0  0
   -7.6689  -16.8377  -13.4497 O   0  0  0  0  0
   -7.4155  -20.2095  -13.2438 O   0  0  0  0  0
  -10.0311  -20.5216  -14.3509 O   0  0  0  0  0
   -8.4624  -22.5310  -14.9819 O   0  0  0  0  0
  -11.0192  -23.0083  -15.0314 O   0  0  0  0  0
   -9.7991  -21.4461  -16.9552 O   0  0  0  0  0
   -4.0427  -17.6099  -15.1119 P   0  0  0  0  0
   -2.1092  -10.1287  -16.9584 P   0  0  0  0  0
   -7.4832   -4.8092  -19.8161 P   0  0  0  0  0
   -6.9708    2.4281  -16.2770 P   0  0  0  0  0
   -9.7875  -21.8903  -15.3190 P   0  0  0  0  0
  5 22  1  0  0  0
  6 33  1  0  0  0
 11 43  1  0  0  0
 16 53  1  0  0  0
 21  2  1  0  0  0
 22 23  1  0  0  0
 23  4  1  0  0  0
 24  3  1  0  0  0
 24  1  1  0  0  0
 25  5  1  0  0  0
 26  5  1  0  0  0
 26 27  1  0  0  0
 26 84  1  0  0  0
 27 61  1  0  0  0
 27 58  1  0  0  0
 28 63  1  0  0  0
 29 28  1  0  0  0
 29 30  1  0  0  0
 29 64  1  0  0  0
 30 31  1  0  0  0
 30 81  1  0  0  0
 31 32  1  0  0  0
 31 65  1  0  0  0
 32  6  1  0  0  0
 32 64  1  0  0  0
 34  7  1  0  0  0
 35  8  1  0  0  0
 35 10  1  0  0  0
 36  9  1  0  0  0
 36 33  1  0  0  0
 37  6  1  0  0  0
 38 67  1  0  0  0
 39 38  1  0  0  0
 39 40  1  0  0  0
 39 68  1  0  0  0
 40 41  1  0  0  0
 40 79  1  0  0  0
 41 42  1  0  0  0
 41 69  1  0  0  0
 42 11  1  0  0  0
 42 68  1  0  0  0
 44 12  1  0  0  0
 45 13  1  0  0  0
 45 15  1  0  0  0
 46 14  1  0  0  0
 46 43  1  0  0  0
 47 11  1  0  0  0
 48 71  1  0  0  0
 49 48  1  0  0  0
 49 50  1  0  0  0
 49 72  1  0  0  0
 50 51  1  0  0  0
 50 77  1  0  0  0
 51 52  1  0  0  0
 51 73  1  0  0  0
 52 16  1  0  0  0
 52 72  1  0  0  0
 54 17  1  0  0  0
 55 18  1  0  0  0
 55 20  1  0  0  0
 56 19  1  0  0  0
 56 53  1  0  0  0
 57 16  1  0  0  0
 58 83  1  0  0  0
 58 59  1  0  0  0
 59 84  1  0  0  0
 59 60  1  0  0  0
 60 85  1  0  0  0
 89 61  1  0  0  0
 89 63  1  0  0  0
 89 82  1  0  0  0
 90 65  1  0  0  0
 90 67  1  0  0  0
 90 80  1  0  0  0
 91 69  1  0  0  0
 91 71  1  0  0  0
 91 78  1  0  0  0
 92 73  1  0  0  0
 92 75  1  0  0  0
 92 76  1  0  0  0
 93 85  1  0  0  0
 93 87  1  0  0  0
 93 88  1  0  0  0
 21  1  2  0  0  0
 22  2  2  0  0  0
 23 24  2  0  0  0
 25  4  2  0  0  0
 33  7  2  0  0  0
 34  8  2  0  0  0
 35 36  2  0  0  0
 37  9  2  0  0  0
 43 12  2  0  0  0
 44 13  2  0  0  0
 45 46  2  0  0  0
 47 14  2  0  0  0
 53 17  2  0  0  0
 54 18  2  0  0  0
 55 56  2  0  0  0
 57 19  2  0  0  0
 89 62  2  0  0  0
 90 66  2  0  0  0
 91 70  2  0  0  0
 92 74  2  0  0  0
 93 86  2  0  0  0
M  END
> <rmsd>
0.67692256

$$$$
CHEMBL3314940 PubChem-118707904


 35 37  0  0  0  0  0  0  0  0999 V2000
   -2.6997   -7.9566  -18.0130 O   0  0  0  0  0
   -4.5415   -8.9330  -19.5958 O   0  0  0  0  0
   -4.3522   -5.4355  -17.5900 O   0  0  0  0  0
   -6.7936   -5.5822  -16.6552 O   0  0  0  0  0
   -6.1547   -6.4290  -19.2454 O   0  0  0  0  0
   -7.0354   -4.9632  -21.2154 O   0  0  0  0  0
   -8.1806   -4.5636  -18.9064 O   0  0  0  0  0
   -5.5838   -3.7027  -19.4402 O   0  0  0  0  0
   -4.9461   -1.3211  -18.0051 O   0  0  0  0  0
   -8.3973   -0.6460  -18.2145 O   0  0  0  0  0
   -7.0892    0.6850  -16.4215 O   0  0  0  0  0
   -3.6656  -10.2959  -17.3662 O   0  0  0  0  0
   -3.9775   -8.7644  -18.0103 P   0  0  0  0  0
   -5.6067   -6.2789  -17.6403 P   0  0  0  0  0
   -6.7429   -4.9091  -19.7330 P   0  0  0  0  0
   -5.2338   -7.9351  -16.9898 C   0  0  0  0  0
   -6.2416   -2.4883  -19.6472 C   0  0  0  0  0
   -6.2551   -1.6851  -18.3587 C   0  0  0  0  0
   -5.0432   -0.0808  -17.3445 C   0  0  0  0  0
   -6.3911    0.5566  -17.6255 C   0  0  0  0  0
   -7.0585   -0.4269  -18.5504 C   0  0  0  0  0
   -3.0117    1.3841  -16.9973 C   0  0  0  0  0
   -2.5592    2.0009  -18.9690 C   0  0  0  0  0
   -3.6513    1.2034  -19.0126 C   0  0  0  0  0
   -3.7873    1.4161  -21.3313 C   0  0  0  0  0
   -2.0480    2.5364  -20.1423 C   0  0  0  0  0
   -2.9440    1.2102  -15.5131 C   0  0  0  0  0
   -1.6366    0.5397  -15.1229 C   0  0  0  0  0
   -1.7296   -0.0239  -13.7176 C   0  0  0  0  0
   -3.0841    2.5566  -14.8234 C   0  0  0  0  0
   -3.9607    0.7994  -17.7737 N   0  0  0  0  0
   -2.1216    2.1402  -17.7030 N   0  0  0  0  0
   -4.2840    0.8918  -20.1700 N   0  0  0  0  0
   -2.6815    2.2289  -21.3128 N   0  0  0  0  0
   -0.8998    3.3772  -20.1366 N   0  0  0  0  0
 13  2  1  0  0  0
 13 16  1  0  0  0
 13 12  1  0  0  0
 14  4  1  0  0  0
 14  5  1  0  0  0
 15  5  1  0  0  0
 15  7  1  0  0  0
 15  8  1  0  0  0
 16 14  1  0  0  0
 17  8  1  0  0  0
 18 17  1  0  0  0
 18  9  1  0  0  0
 19  9  1  0  0  0
 19 20  1  0  0  0
 19 31  1  0  0  0
 20 21  1  0  0  0
 20 11  1  0  0  0
 21 10  1  0  0  0
 21 18  1  0  0  0
 23 32  1  0  0  0
 24 33  1  0  0  0
 24 31  1  0  0  0
 25 34  1  0  0  0
 26 35  1  0  0  0
 26 23  1  0  0  0
 27 22  1  0  0  0
 27 28  1  0  0  0
 27 30  1  0  0  0
 28 29  1  0  0  0
 31 22  1  0  0  0
 13  1  2  0  0  0
 14  3  2  0  0  0
 15  6  2  0  0  0
 22 32  2  0  0  0
 23 24  2  0  0  0
 25 33  2  0  0  0
 26 34  2  0  0  0
M  END
> <rmsd>
0.787263811

$$$$
