# Top-energy pose of compounds ranked according to the score (given in kcal/mol).
@<TRIPOS>MOLECULE
ligand_e79c6d4556_3_run_5.pdb
 109 111 0 0 0
SMALL
GASTEIGER

@<TRIPOS>ATOM
      1    S        5.1190   -7.1740  -14.3810 S.3     2  LIG2       -0.0866
      2    C        5.0190   -7.2590  -12.5650 C.3     2  LIG2        0.0165
      3    C        4.0910   -6.1770  -12.0380 C.3     2  LIG2        0.0210
      4    C        1.9610   -7.4990  -12.2900 C.2     2  LIG2        0.2145
      5    C        0.6590   -7.6820  -12.9960 C.3     2  LIG2        0.0395
      6    C        0.8210   -7.6230  -14.5120 C.3     2  LIG2        0.0199
      7    C       -0.9950   -5.9840  -15.2280 C.2     2  LIG2        0.2423
      8    C       -2.2880   -5.7490  -15.9530 C.3     2  LIG2        0.1380
      9    C       -2.1040   -5.2900  -17.4140 C.3     2  LIG2        0.0234
     10    C       -3.1100   -6.0030  -18.3150 C.3     2  LIG2        0.0628
     11    C       -6.8790   -2.7510  -19.3150 C.3     2  LIG2        0.0837
     12    C       -6.6590   -1.8380  -18.1240 C.3     2  LIG2        0.1141
     13    C       -7.3540   -0.5220  -18.3480 C.3     2  LIG2        0.1285
     14    C       -6.5010    0.4430  -17.5730 C.3     2  LIG2        0.1294
     15    C       -5.1520   -0.2470  -17.5490 C.3     2  LIG2        0.1667
     16    C       -4.1250    0.3610  -19.7800 C.ar    2  LIG2        0.1004
     17    C       -2.5650    1.6730  -19.1740 C.ar    2  LIG2        0.1473
     18    C       -3.2250    1.2650  -18.0710 C.ar    2  LIG2        0.1674
     19    C       -1.8160    2.5120  -16.6920 C.ar    2  LIG2        0.1205
     20    C       -1.4860    2.5370  -19.0540 C.ar    2  LIG2        0.1472
     21    C       -0.7000   -5.5980  -17.9160 C.3     2  LIG2       -0.0549
     22    C       -2.3180   -3.7840  -17.5250 C.3     2  LIG2       -0.0549
     23    C        6.6310   -8.1330  -14.4370 C.2     2  LIG2        0.1894
     24    C        6.6200   -9.5050  -15.0160 C.3     2  LIG2        0.0162
     25    C        7.4830  -10.4340  -14.1850 C.3     2  LIG2       -0.0455
     26    C        6.7780  -10.7770  -12.8890 C.3     2  LIG2       -0.0526
     27    C        7.7350  -11.4990  -11.9530 C.3     2  LIG2       -0.0530
     28    C        6.9650  -12.1460  -10.8260 C.3     2  LIG2       -0.0531
     29    C        6.3380  -11.0860   -9.9330 C.3     2  LIG2       -0.0531
     30    C        5.6310  -11.7130   -8.7380 C.3     2  LIG2       -0.0533
     31    C        4.9420  -10.6670   -7.8730 C.3     2  LIG2       -0.0559
     32    C        4.1850  -11.3300   -6.7370 C.3     2  LIG2       -0.0653
     33    N        2.7610   -6.3570  -12.5920 N.am    2  LIG2       -0.3145
     34    N       -0.4390   -7.3000  -15.1730 N.am    2  LIG2       -0.3127
     35    N       -4.2130    0.4390  -18.4270 N.ar    2  LIG2       -0.2855
     36    N       -3.1080    1.1210  -20.2770 N.ar    2  LIG2       -0.2306
     37    N       -2.8780    1.6600  -16.8210 N.ar    2  LIG2       -0.2159
     38    N       -1.1300    2.9430  -17.7990 N.ar    2  LIG2       -0.2188
     39    N       -0.7650    2.9870  -20.1940 N.pl3   2  LIG2       -0.3413
     40    O        2.3430   -8.3450  -11.4360 O.2     2  LIG2       -0.2758
     41    O       -0.4210   -5.0220  -14.6560 O.2     2  LIG2       -0.2730
     42    O       -4.4210   -5.7690  -17.8760 O.3     2  LIG2       -0.3266
     43    O       -6.7930   -6.8230  -18.2100 O.3     2  LIG2       -0.4371
     44    O       -5.4750   -6.2940  -20.4340 O.3     2  LIG2       -0.2703
     45    O       -6.1540   -4.2200  -21.8620 O.2     2  LIG2       -0.5170
     46    O       -5.9560   -3.7990  -19.2770 O.3     2  LIG2       -0.3246
     47    O       -5.2850   -1.5920  -17.9530 O.3     2  LIG2       -0.3456
     48    O       -6.9590    0.5780  -16.2590 O.3     2  LIG2       -0.3846
     49    O       -8.6690   -0.5650  -17.8690 O.3     2  LIG2       -0.2748
     50    O       -9.0940    1.9590  -17.3280 O.3     2  LIG2       -0.1145
     51    O      -11.0550    0.6990  -18.5080 O.3     2  LIG2       -0.1145
     52    O       -8.7370    1.3850  -19.8510 O.2     2  LIG2       -0.2224
     53    O       -8.0530   -5.2400  -20.3830 O.3     2  LIG2       -0.4371
     54    O       -4.7640   -8.3520  -18.7470 O.2     2  LIG2       -0.5170
     55    O       -3.0960   -4.8640  -15.2330 O.3     2  LIG2       -0.3820
     56    O        7.6670   -7.6560  -14.0080 O.2     2  LIG2       -0.2852
     57    P       -5.4050   -6.7900  -18.8060 P.3     2  LIG2        0.2181
     58    P       -6.4050   -4.8700  -20.5140 P.3     2  LIG2        0.2182
     59    P       -9.3800    0.8960  -18.3630 P.3     2  LIG2        0.5323
     60    H        5.9960   -7.1200  -12.1510 H       2  LIG2        0.0396
     61    H        4.6340   -8.2170  -12.2820 H       2  LIG2        0.0396
     62    H        4.4680   -5.2170  -12.3220 H       2  LIG2        0.0470
     63    H        4.0420   -6.2430  -10.9710 H       2  LIG2        0.0470
     64    H       -0.0120   -6.9070  -12.6900 H       2  LIG2        0.0374
     65    H        0.2760   -8.6480  -12.7410 H       2  LIG2        0.0374
     66    H        1.1630   -8.5740  -14.8620 H       2  LIG2        0.0467
     67    H        1.5280   -6.8540  -14.7440 H       2  LIG2        0.0467
     68    H       -2.7820   -6.6960  -16.0150 H       2  LIG2        0.0696
     69    H       -2.9150   -7.0550  -18.2950 H       2  LIG2        0.0570
     70    H       -3.0080   -5.6260  -19.3110 H       2  LIG2        0.0570
     71    H       -7.8720   -3.1490  -19.2800 H       2  LIG2        0.0591
     72    H       -6.7490   -2.1950  -20.2190 H       2  LIG2        0.0591
     73    H       -7.0560   -2.3170  -17.2540 H       2  LIG2        0.0647
     74    H       -7.4470   -0.2520  -19.3790 H       2  LIG2        0.0656
     75    H       -6.4950    1.4230  -18.0040 H       2  LIG2        0.0666
     76    H       -4.7750   -0.2170  -16.5480 H       2  LIG2        0.0866
     77    H       -4.7560   -0.2080  -20.3660 H       2  LIG2        0.1030
     78    H       -1.5280    2.8330  -15.7550 H       2  LIG2        0.1048
     79    H       -0.5210   -6.6510  -17.8500 H       2  LIG2        0.0237
     80    H        0.0150   -5.0760  -17.3150 H       2  LIG2        0.0237
     81    H       -0.6080   -5.2830  -18.9340 H       2  LIG2        0.0237
     82    H       -3.3000   -3.5370  -17.1780 H       2  LIG2        0.0237
     83    H       -2.2140   -3.4830  -18.5470 H       2  LIG2        0.0237
     84    H       -1.5900   -3.2760  -16.9280 H       2  LIG2        0.0237
     85    H        7.0010   -9.4690  -16.0160 H       2  LIG2        0.0350
     86    H        5.6160   -9.8740  -15.0210 H       2  LIG2        0.0350
     87    H        8.4120   -9.9510  -13.9650 H       2  LIG2        0.0270
     88    H        7.6620  -11.3330  -14.7360 H       2  LIG2        0.0270
     89    H        5.9400  -11.4100  -13.0980 H       2  LIG2        0.0265
     90    H        6.4420   -9.8750  -12.4220 H       2  LIG2        0.0265
     91    H        8.4320  -10.7960  -11.5480 H       2  LIG2        0.0265
     92    H        8.2570  -12.2550  -12.5010 H       2  LIG2        0.0265
     93    H        7.6320  -12.7470  -10.2440 H       2  LIG2        0.0265
     94    H        6.1890  -12.7540  -11.2400 H       2  LIG2        0.0265
     95    H        5.6260  -10.5260  -10.5040 H       2  LIG2        0.0265
     96    H        7.1160  -10.4490   -9.5680 H       2  LIG2        0.0265
     97    H        6.3530  -12.2330   -8.1430 H       2  LIG2        0.0265
     98    H        4.8830  -12.3820   -9.1080 H       2  LIG2        0.0265
     99    H        4.2560  -10.1090   -8.4750 H       2  LIG2        0.0263
    100    H        5.6850  -10.0160   -7.4600 H       2  LIG2        0.0263
    101    H        3.4390  -11.9840   -7.1400 H       2  LIG2        0.0230
    102    H        3.7150  -10.5800   -6.1360 H       2  LIG2        0.0230
    103    H        4.8660  -11.8940   -6.1360 H       2  LIG2        0.0230
    104    H        2.3990   -5.6680  -13.1950 H       2  LIG2        0.1487
    105    H       -0.9360   -8.0320  -15.6060 H       2  LIG2        0.1488
    106    H       -1.0300    2.6880  -21.0940 H       2  LIG2        0.1438
    107    H       -0.0000    3.5980  -20.0840 H       2  LIG2        0.1438
    108    H       -7.8310    1.0030  -16.2630 H       2  LIG2        0.2101
    109    H       -2.6250   -4.0260  -15.1060 H       2  LIG2        0.2105
@<TRIPOS>BOND
     1    45    58    2
     2   106    39    1
     3    58    44    1
     4    58    53    1
     5    58    46    1
     6    44    57    1
     7    77    16    1
     8    36    16   ar
     9    36    17   ar
    10    72    11    1
    11    39   107    1
    12    39    20    1
    13    52    59    2
    14    16    35   ar
    15    74    13    1
    16    11    71    1
    17    11    46    1
    18    11    12    1
    19    70    10    1
    20    17    20   ar
    21    17    18   ar
    22    20    38   ar
    23    81    21    1
    24    57    54    2
    25    57    43    1
    26    57    42    1
    27    83    22    1
    28    51    59    1
    29    35    18   ar
    30    35    15    1
    31    59    49    1
    32    59    50    1
    33    13    12    1
    34    13    49    1
    35    13    14    1
    36    10    69    1
    37    10    42    1
    38    10     9    1
    39    12    47    1
    40    12    73    1
    41    18    37   ar
    42    75    14    1
    43    47    15    1
    44    21    79    1
    45    21     9    1
    46    21    80    1
    47    38    19   ar
    48    14    15    1
    49    14    48    1
    50    15    76    1
    51    22     9    1
    52    22    82    1
    53    22    84    1
    54     9     8    1
    55    37    19   ar
    56    19    78    1
    57   108    48    1
    58    85    24    1
    59    68     8    1
    60     8    55    1
    61     8     7    1
    62   105    34    1
    63    55   109    1
    64     7    34   am
    65     7    41    2
    66    34     6    1
    67    86    24    1
    68    24    23    1
    69    24    25    1
    70    66     6    1
    71    67     6    1
    72    88    25    1
    73     6     5    1
    74    23     1    1
    75    23    56    2
    76     1     2    1
    77    25    87    1
    78    25    26    1
    79   104    33    1
    80    89    26    1
    81     5    65    1
    82     5    64    1
    83     5     4    1
    84    26    90    1
    85    26    27    1
    86    33     4   am
    87    33     3    1
    88     2    61    1
    89     2    60    1
    90     2     3    1
    91    92    27    1
    92    62     3    1
    93     4    40    2
    94     3    63    1
    95    27    91    1
    96    27    28    1
    97    94    28    1
    98    28    93    1
    99    28    29    1
   100    95    29    1
   101    29    96    1
   102    29    30    1
   103    98    30    1
   104    30    97    1
   105    30    31    1
   106    99    31    1
   107    31   100    1
   108    31    32    1
   109   101    32    1
   110    32   102    1
   111    32   103    1
@<TRIPOS>MOLECULE
ligand_e79c6d4556_5_run_16.pdb
 111 113 0 0 0
SMALL
GASTEIGER

@<TRIPOS>ATOM
      1    P        1.2390   -7.6830  -14.8850 P.3     2  LIG2        0.2181
      2    P       -1.1940   -6.4180  -15.1860 P.3     2  LIG2        0.2182
      3    P       -6.5300   -6.1330  -18.9120 P.3     2  LIG2        0.5323
      4    O        1.9470   -9.0130  -15.0050 O.3     2  LIG2       -0.4371
      5    O       -0.4200   -7.9340  -15.1860 O.3     2  LIG2       -0.2703
      6    O       -2.5550   -6.5150  -14.5310 O.2     2  LIG2       -0.5170
      7    O       -1.3690   -5.8270  -16.7650 O.3     2  LIG2       -0.3246
      8    O       -1.8010   -6.7110  -19.6840 O.3     2  LIG2       -0.3456
      9    O       -4.4160   -5.5140  -21.3040 O.3     2  LIG2       -0.3846
     10    O       -4.9730   -5.4730  -18.7710 O.3     2  LIG2       -0.2748
     11    O       -7.5430   -5.2040  -18.2790 O.3     2  LIG2       -0.1145
     12    O       -6.9000   -6.3230  -20.5510 O.2     2  LIG2       -0.2224
     13    O       -6.5950   -7.6440  -18.1530 O.3     2  LIG2       -0.1145
     14    O       -0.2530   -5.3360  -14.2860 O.3     2  LIG2       -0.4371
     15    O        1.9030   -6.6270  -16.0280 O.2     2  LIG2       -0.5170
     16    O        1.4930   -7.0360  -13.3360 O.3     2  LIG2       -0.3266
     17    O        6.1570   -8.6040  -11.6000 O.2     2  LIG2       -0.2730
     18    O        8.8970   -7.1220  -15.1840 O.2     2  LIG2       -0.2758
     19    O        7.5930   -0.8320  -20.0380 O.2     2  LIG2       -0.2749
     20    O        4.2260    0.4350  -17.3390 O.2     2  LIG2       -0.2740
     21    O        5.2290   -6.4390  -10.2870 O.3     2  LIG2       -0.3820
     22    C       -2.3550   -6.6280  -17.3500 C.3     2  LIG2        0.0837
     23    C       -2.6800   -6.1380  -18.7520 C.3     2  LIG2        0.1141
     24    C       -4.0910   -6.4980  -19.1360 C.3     2  LIG2        0.1285
     25    C       -4.0080   -6.6710  -20.6300 C.3     2  LIG2        0.1294
     26    C       -2.5270   -6.8890  -20.8810 C.3     2  LIG2        0.1667
     27    C       -2.9040   -9.3910  -21.0700 C.ar    2  LIG2        0.1004
     28    C       -1.4930   -9.9150  -22.5660 C.ar    2  LIG2        0.1473
     29    C       -1.4150   -8.5840  -22.3610 C.ar    2  LIG2        0.1674
     30    C        0.2890   -8.3760  -23.9390 C.ar    2  LIG2        0.1205
     31    C       -0.6530  -10.5200  -23.4900 C.ar    2  LIG2        0.1472
     32    C        2.8730   -6.8290  -13.2310 C.3     2  LIG2        0.0628
     33    C        3.3310   -6.7690  -11.7690 C.3     2  LIG2        0.0234
     34    C        4.8620   -6.5850  -11.6300 C.3     2  LIG2        0.1380
     35    C        5.6970   -7.6540  -12.2900 C.2     2  LIG2        0.2423
     36    C        6.7880   -8.5910  -14.3580 C.3     2  LIG2        0.0199
     37    C        6.9180   -8.2780  -15.8420 C.3     2  LIG2        0.0395
     38    C        8.1070   -7.4240  -16.1190 C.2     2  LIG2        0.2145
     39    C        9.4810   -6.1150  -17.7910 C.3     2  LIG2        0.0206
     40    C        9.1880   -4.6490  -17.5320 C.3     2  LIG2        0.0097
     41    C        8.0690   -2.3710  -18.2500 C.3     2  LIG2        0.0702
     42    C        7.1580   -1.5000  -19.0590 C.2     2  LIG2        0.2235
     43    C        4.8210   -0.6000  -19.4230 C.3     2  LIG2        0.0993
     44    C        3.6070   -1.4390  -19.8050 C.3     2  LIG2       -0.0231
     45    C        3.8990   -2.2990  -21.0250 C.3     2  LIG2       -0.0201
     46    C        2.6580   -3.0850  -21.4270 C.3     2  LIG2        0.0646
     47    C        1.0760   -4.5010  -20.2500 C.cat   2  LIG2        0.3410
     48    C        4.4160    0.5720  -18.5800 C.2     2  LIG2        0.2308
     49    C        2.9390   -8.0840  -11.1180 C.3     2  LIG2       -0.0549
     50    C        2.5870   -5.6720  -11.0200 C.3     2  LIG2       -0.0549
     51    N       -2.2990   -8.2270  -21.4230 N.ar    2  LIG2       -0.2855
     52    N       -2.4250  -10.4620  -21.7650 N.ar    2  LIG2       -0.2306
     53    N       -0.5400   -7.7890  -23.0240 N.ar    2  LIG2       -0.2159
     54    N        0.2290   -9.7280  -24.1670 N.ar    2  LIG2       -0.2188
     55    N       -0.6970  -11.9210  -23.7270 N.pl3   2  LIG2       -0.3413
     56    N        5.9300   -7.6170  -13.6990 N.am    2  LIG2       -0.3127
     57    N        8.3200   -6.9240  -17.4390 N.am    2  LIG2       -0.3145
     58    N        5.7750   -1.4320  -18.7030 N.am    2  LIG2       -0.3033
     59    N        2.2610   -3.9880  -20.3550 N.pl3   2  LIG2       -0.2787
     60    N        0.0560   -4.1970  -21.1960 N.pl3   2  LIG2       -0.2919
     61    N        0.7880   -5.3800  -19.1700 N.pl3   2  LIG2       -0.2919
     62    N        4.2420    1.8500  -19.1860 N.am    2  LIG2       -0.3278
     63    S        7.6720   -4.1450  -18.3980 S.3     2  LIG2       -0.1499
     64    H       -5.3490   -5.3360  -21.1050 H       2  LIG2        0.2101
     65    H        6.1850   -6.2870  -10.2280 H       2  LIG2        0.2105
     66    H       -3.2410   -6.5900  -16.7500 H       2  LIG2        0.0591
     67    H       -1.9930   -7.6330  -17.4100 H       2  LIG2        0.0591
     68    H       -2.5730   -5.0730  -18.7560 H       2  LIG2        0.0647
     69    H       -4.4630   -7.3750  -18.6480 H       2  LIG2        0.0656
     70    H       -4.6350   -7.4670  -20.9740 H       2  LIG2        0.0666
     71    H       -2.1870   -6.1690  -21.5960 H       2  LIG2        0.0866
     72    H       -3.6440   -9.4580  -20.3540 H       2  LIG2        0.1030
     73    H        0.9640   -7.7990  -24.4640 H       2  LIG2        0.1048
     74    H        3.1210   -5.9050  -13.7100 H       2  LIG2        0.0570
     75    H        3.3690   -7.6520  -13.7010 H       2  LIG2        0.0570
     76    H        5.0770   -5.6850  -12.1670 H       2  LIG2        0.0696
     77    H        6.3660   -9.5670  -14.2410 H       2  LIG2        0.0467
     78    H        7.7600   -8.5500  -13.9130 H       2  LIG2        0.0467
     79    H        6.0370   -7.7650  -16.1670 H       2  LIG2        0.0374
     80    H        7.0370   -9.2010  -16.3700 H       2  LIG2        0.0374
     81    H        9.7070   -6.2540  -18.8280 H       2  LIG2        0.0470
     82    H       10.3150   -6.4190  -17.1950 H       2  LIG2        0.0470
     83    H       10.0080   -4.0580  -17.8830 H       2  LIG2        0.0392
     84    H        9.0540   -4.5010  -16.4800 H       2  LIG2        0.0392
     85    H        9.0740   -2.2180  -18.5850 H       2  LIG2        0.0471
     86    H        7.9460   -2.0990  -17.2230 H       2  LIG2        0.0471
     87    H        5.2760   -0.2240  -20.3150 H       2  LIG2        0.0594
     88    H        2.7870   -0.7870  -20.0250 H       2  LIG2        0.0289
     89    H        3.3660   -2.0820  -18.9850 H       2  LIG2        0.0289
     90    H        4.6890   -2.9820  -20.7940 H       2  LIG2        0.0296
     91    H        4.1870   -1.6650  -21.8370 H       2  LIG2        0.0296
     92    H        2.8720   -3.6550  -22.3070 H       2  LIG2        0.0655
     93    H        1.8600   -2.3990  -21.6180 H       2  LIG2        0.0655
     94    H        3.4390   -8.8900  -11.6140 H       2  LIG2        0.0237
     95    H        1.8810   -8.2200  -11.1970 H       2  LIG2        0.0237
     96    H        3.2210   -8.0700  -10.0860 H       2  LIG2        0.0237
     97    H        2.8320   -4.7210  -11.4440 H       2  LIG2        0.0237
     98    H        2.8740   -5.6870   -9.9890 H       2  LIG2        0.0237
     99    H        1.5330   -5.8370  -11.0990 H       2  LIG2        0.0237
    100    H       -1.3370  -12.4840  -23.2330 H       2  LIG2        0.1438
    101    H       -0.0880  -12.3290  -24.3840 H       2  LIG2        0.1438
    102    H        5.5000   -6.9150  -14.2390 H       2  LIG2        0.1488
    103    H        7.6580   -7.1320  -18.1370 H       2  LIG2        0.1487
    104    H        5.4560   -1.9680  -17.9410 H       2  LIG2        0.1495
    105    H        2.9300   -4.2210  -19.6720 H       2  LIG2        0.2578
    106    H       -0.8390   -4.5970  -21.1010 H       2  LIG2        0.2545
    107    H        0.2460   -3.5880  -21.9460 H       2  LIG2        0.2545
    108    H       -0.1100   -5.7750  -19.0820 H       2  LIG2        0.2545
    109    H        1.4870   -5.5940  -18.5100 H       2  LIG2        0.2545
    110    H        4.3890    1.9610  -20.1530 H       2  LIG2        0.1450
    111    H        3.9740    2.6230  -18.6370 H       2  LIG2        0.1450
@<TRIPOS>BOND
     1    73    30    1
     2   101    55    1
     3    54    30   ar
     4    54    31   ar
     5    30    53   ar
     6    55    31    1
     7    55   100    1
     8    31    28   ar
     9    53    29   ar
    10    28    29   ar
    11    28    52   ar
    12    29    51   ar
    13    92    46    1
    14   107    60    1
    15    91    45    1
    16    52    27   ar
    17    93    46    1
    18    71    26    1
    19    46    45    1
    20    46    59    1
    21    51    27   ar
    22    51    26    1
    23     9    64    1
    24     9    25    1
    25    60   106    1
    26    60    47    2
    27    27    72    1
    28    45    90    1
    29    45    44    1
    30    70    25    1
    31    26    25    1
    32    26     8    1
    33    25    24    1
    34    12     3    2
    35    59    47    1
    36    59   105    1
    37    87    43    1
    38    47    61    1
    39   110    62    1
    40    19    42    2
    41    88    44    1
    42    44    43    1
    43    44    89    1
    44     8    23    1
    45    43    58    1
    46    43    48    1
    47    62   111    1
    48    62    48   am
    49    61   108    1
    50    61   109    1
    51    24    10    1
    52    24    23    1
    53    24    69    1
    54    42    58   am
    55    42    41    1
    56     3    10    1
    57     3    11    1
    58     3    13    1
    59    81    39    1
    60    68    23    1
    61    23    22    1
    62    58   104    1
    63    85    41    1
    64    48    20    2
    65    63    41    1
    66    63    40    1
    67    41    86    1
    68   103    57    1
    69    83    40    1
    70    39    40    1
    71    39    57    1
    72    39    82    1
    73    40    84    1
    74    57    38   am
    75    67    22    1
    76    22     7    1
    77    22    66    1
    78     7     2    1
    79    80    37    1
    80    79    37    1
    81    38    37    1
    82    38    18    2
    83    15     1    2
    84    37    36    1
    85     2     5    1
    86     2     6    2
    87     2    14    1
    88     5     1    1
    89     4     1    1
    90     1    16    1
    91    36    77    1
    92    36    78    1
    93    36    56    1
    94   102    56    1
    95    74    32    1
    96    75    32    1
    97    56    35   am
    98    16    32    1
    99    32    33    1
   100    35    34    1
   101    35    17    2
   102    76    34    1
   103    33    34    1
   104    33    49    1
   105    33    50    1
   106    34    21    1
   107    94    49    1
   108    97    50    1
   109    95    49    1
   110    49    96    1
   111    99    50    1
   112    50    98    1
   113    21    65    1
@<TRIPOS>MOLECULE
ligand_e79c6d4556_4_run_20.pdb
 113 115 0 0 0
SMALL
GASTEIGER

@<TRIPOS>ATOM
      1    C        4.7540  -12.6960   -3.0760 C.3     2  LIG2        0.0122
      2    C        4.8110  -12.7780   -4.5570 C.2     2  LIG2        0.2105
      3    C        6.1760  -12.6220   -6.6790 C.3     2  LIG2        0.0991
      4    C        5.7790  -11.2800   -7.2850 C.3     2  LIG2       -0.0259
      5    C        6.7010  -10.1550   -6.8290 C.3     2  LIG2       -0.0495
      6    C        6.2000   -8.7910   -7.2930 C.3     2  LIG2       -0.0373
      7    C        6.4090   -8.5940   -8.7880 C.3     2  LIG2        0.0116
      8    C        4.4160   -7.1360   -9.3690 C.2     2  LIG2        0.2229
      9    C        3.9000   -5.8230   -9.8500 C.3     2  LIG2        0.0702
     10    C        2.7990   -6.5770  -12.1230 C.3     2  LIG2        0.0097
     11    C        2.9230   -6.9920  -13.5760 C.3     2  LIG2        0.0206
     12    C        0.5270   -6.8890  -14.3450 C.2     2  LIG2        0.2145
     13    C       -0.7190   -7.6080  -14.7310 C.3     2  LIG2        0.0395
     14    C       -1.8300   -6.6270  -15.0700 C.3     2  LIG2        0.0199
     15    C       -2.4450   -5.0430  -16.9300 C.2     2  LIG2        0.2423
     16    C       -2.2020   -4.5100  -18.3100 C.3     2  LIG2        0.1380
     17    C       -2.6990   -5.4290  -19.4520 C.3     2  LIG2        0.0234
     18    C       -2.0160   -6.7900  -19.4110 C.3     2  LIG2       -0.0549
     19    C       -2.4160   -4.7950  -20.8030 C.3     2  LIG2       -0.0549
     20    C       -4.2150   -5.6080  -19.3620 C.3     2  LIG2        0.0628
     21    C       -6.7390   -2.4620  -19.1650 C.3     2  LIG2        0.0837
     22    C       -6.6650   -1.4060  -18.0730 C.3     2  LIG2        0.1141
     23    C       -5.3840    0.3800  -17.5400 C.3     2  LIG2        0.1665
     24    C       -6.7910    0.9160  -17.7370 C.3     2  LIG2        0.1294
     25    C       -7.4810   -0.2040  -18.4660 C.3     2  LIG2        0.1285
     26    C       -4.4950    1.4010  -19.6850 C.ar    2  LIG2        0.0999
     27    C       -2.7260    2.3520  -18.9970 C.ar    2  LIG2        0.1287
     28    C       -1.5430    3.0530  -18.8170 C.3     2  LIG2        0.2004
     29    C       -1.6380    2.4850  -16.5020 C.2     2  LIG2        0.1049
     30    C       -3.3190    1.7500  -17.9450 C.ar    2  LIG2        0.1528
     31    C        7.5810  -12.9530   -7.0590 C.2     2  LIG2        0.2308
     32    O        3.7620  -13.0310   -5.2090 O.2     2  LIG2       -0.2761
     33    O        3.6080   -8.0710   -9.1220 O.2     2  LIG2       -0.2749
     34    O        0.5510   -5.6280  -14.3420 O.2     2  LIG2       -0.2758
     35    O       -3.3760   -4.5540  -16.2380 O.2     2  LIG2       -0.2730
     36    O       -2.7330   -3.2220  -18.4180 O.3     2  LIG2       -0.3820
     37    O       -4.7260   -6.2930  -20.4720 O.3     2  LIG2       -0.3266
     38    O       -7.0300   -5.9010  -19.0230 O.3     2  LIG2       -0.4371
     39    O       -7.0950   -6.7900  -21.4810 O.2     2  LIG2       -0.5170
     40    O       -6.4410   -4.2310  -21.1550 O.3     2  LIG2       -0.2703
     41    O       -9.0490   -5.0000  -20.7260 O.3     2  LIG2       -0.4371
     42    O       -8.4980   -2.8500  -22.0980 O.2     2  LIG2       -0.5170
     43    O       -8.0700   -2.7240  -19.4970 O.3     2  LIG2       -0.3246
     44    O       -5.3380   -0.9870  -17.8900 O.3     2  LIG2       -0.3456
     45    O       -7.3700    1.1340  -16.4830 O.3     2  LIG2       -0.3846
     46    O       -8.8180   -0.3510  -18.0710 O.3     2  LIG2       -0.2748
     47    O      -11.3060    0.6170  -18.7830 O.3     2  LIG2       -0.1145
     48    O       -9.3750    2.3700  -17.8960 O.3     2  LIG2       -0.1145
     49    O       -9.1770    1.1450  -20.2030 O.2     2  LIG2       -0.2224
     50    O        8.4970  -12.8500   -6.2040 O.2     2  LIG2       -0.2740
     51    N        6.0550  -12.5810   -5.2280 N.am    2  LIG2       -0.3042
     52    N        5.8260   -7.3340   -9.2320 N.am    2  LIG2       -0.3146
     53    N        1.6950   -7.6380  -14.0130 N.am    2  LIG2       -0.3145
     54    N       -1.6320   -6.0960  -16.4080 N.am    2  LIG2       -0.3127
     55    N       -4.4400    1.1460  -18.3510 N.ar    2  LIG2       -0.2877
     56    N       -3.4430    2.1520  -20.1190 N.ar    2  LIG2       -0.2346
     57    N       -0.8900    3.7020  -19.9020 N.3     2  LIG2       -0.2985
     58    N       -1.0170    3.1050  -17.5570 N.2     2  LIG2       -0.2420
     59    N       -2.8050    1.7960  -16.6900 N.pl3   2  LIG2       -0.1840
     60    N        7.8920  -13.3860   -8.3800 N.am    2  LIG2       -0.3278
     61    S        4.2620   -5.6200  -11.6190 S.3     2  LIG2       -0.1499
     62    P       -6.3560   -5.8300  -20.5720 P.3     2  LIG2        0.2181
     63    P       -8.0270   -3.6630  -20.9110 P.3     2  LIG2        0.2182
     64    P       -9.6470    0.9520  -18.7790 P.3     2  LIG2        0.5323
     65    H        5.7290  -12.4740   -2.6930 H       2  LIG2        0.0322
     66    H        4.4200  -13.6310   -2.6790 H       2  LIG2        0.0322
     67    H        4.0740  -11.9220   -2.7870 H       2  LIG2        0.0322
     68    H        5.5190  -13.3770   -7.0570 H       2  LIG2        0.0594
     69    H        4.7780  -11.0490   -6.9860 H       2  LIG2        0.0288
     70    H        5.8560  -11.3620   -8.3490 H       2  LIG2        0.0288
     71    H        7.6770  -10.3220   -7.2340 H       2  LIG2        0.0266
     72    H        6.7230  -10.1560   -5.7590 H       2  LIG2        0.0266
     73    H        6.7330   -8.0280   -6.7640 H       2  LIG2        0.0280
     74    H        5.1510   -8.7340   -7.0920 H       2  LIG2        0.0280
     75    H        5.9450   -9.4000   -9.3160 H       2  LIG2        0.0462
     76    H        7.4600   -8.5730   -8.9870 H       2  LIG2        0.0462
     77    H        4.3690   -5.0350   -9.3000 H       2  LIG2        0.0471
     78    H        2.8400   -5.7880   -9.7040 H       2  LIG2        0.0471
     79    H        1.9230   -5.9740  -12.0010 H       2  LIG2        0.0392
     80    H        2.7270   -7.4530  -11.5130 H       2  LIG2        0.0392
     81    H        3.7400   -7.6760  -13.6810 H       2  LIG2        0.0470
     82    H        3.0980   -6.1240  -14.1760 H       2  LIG2        0.0470
     83    H       -1.0340   -8.2250  -13.9160 H       2  LIG2        0.0374
     84    H       -0.5160   -8.2040  -15.5960 H       2  LIG2        0.0374
     85    H       -1.8200   -5.8230  -14.3640 H       2  LIG2        0.0467
     86    H       -2.7720   -7.1340  -15.0280 H       2  LIG2        0.0467
     87    H       -1.1400   -4.4760  -18.4390 H       2  LIG2        0.0696
     88    H       -0.9560   -6.6590  -19.4740 H       2  LIG2        0.0237
     89    H       -2.3510   -7.3820  -20.2370 H       2  LIG2        0.0237
     90    H       -2.2610   -7.2850  -18.4950 H       2  LIG2        0.0237
     91    H       -1.3620   -4.6480  -20.9150 H       2  LIG2        0.0237
     92    H       -2.9160   -3.8510  -20.8660 H       2  LIG2        0.0237
     93    H       -2.7710   -5.4390  -21.5800 H       2  LIG2        0.0237
     94    H       -4.6740   -4.6430  -19.3090 H       2  LIG2        0.0570
     95    H       -4.4290   -6.1870  -18.4880 H       2  LIG2        0.0570
     96    H       -6.2210   -2.1090  -20.0320 H       2  LIG2        0.0591
     97    H       -6.2850   -3.3630  -18.8090 H       2  LIG2        0.0591
     98    H       -7.0440   -1.8350  -17.1690 H       2  LIG2        0.0647
     99    H       -5.1100    0.4820  -16.5100 H       2  LIG2        0.0866
    100    H       -6.8450    1.8420  -18.2700 H       2  LIG2        0.0666
    101    H       -7.5300   -0.0410  -19.5220 H       2  LIG2        0.0656
    102    H       -5.2500    1.0630  -20.3020 H       2  LIG2        0.1030
    103    H       -1.2220    2.5380  -15.5590 H       2  LIG2        0.1015
    104    H       -3.6380   -3.2150  -18.0690 H       2  LIG2        0.2105
    105    H       -8.2260    1.5750  -16.5950 H       2  LIG2        0.2101
    106    H        6.8620  -12.4110   -4.6890 H       2  LIG2        0.1494
    107    H        6.4290   -6.5870   -9.4480 H       2  LIG2        0.1487
    108    H        1.6690   -8.6200  -14.0810 H       2  LIG2        0.1487
    109    H       -0.9180   -6.4720  -16.9710 H       2  LIG2        0.1488
    110    H       -1.2770    3.6590  -20.8070 H       2  LIG2        0.1209
    111    H       -0.0520    4.1950  -19.7490 H       2  LIG2        0.1209
    112    H        7.1780  -13.4670   -9.0520 H       2  LIG2        0.1450
    113    H        8.8210  -13.6040   -8.6200 H       2  LIG2        0.1450
@<TRIPOS>BOND
     1    42    63    2
     2    93    19    1
     3    39    62    2
     4    40    63    1
     5    40    62    1
     6    91    19    1
     7    63    41    1
     8    63    43    1
     9    92    19    1
    10   110    57    1
    11    19    17    1
    12    62    37    1
    13    62    38    1
    14    37    20    1
    15   102    26    1
    16    89    18    1
    17    49    64    2
    18    56    26   ar
    19    56    27   ar
    20    96    21    1
    21    57   111    1
    22    57    28    1
    23    26    55   ar
    24   101    25    1
    25    43    21    1
    26    88    18    1
    27    17    18    1
    28    17    20    1
    29    17    16    1
    30    18    90    1
    31    20    94    1
    32    20    95    1
    33    21    97    1
    34    21    22    1
    35    27    28    1
    36    27    30   ar
    37    28    58    1
    38    47    64    1
    39    64    46    1
    40    64    48    1
    41    25    22    1
    42    25    46    1
    43    25    24    1
    44    87    16    1
    45    36    16    1
    46    36   104    1
    47    55    30   ar
    48    55    23    1
    49    16    15    1
    50   100    24    1
    51    22    44    1
    52    22    98    1
    53    30    59    1
    54    44    23    1
    55    24    23    1
    56    24    45    1
    57    58    29    2
    58    23    99    1
    59   109    54    1
    60    15    54   am
    61    15    35    2
    62    59    29    1
    63   105    45    1
    64    29   103    1
    65    54    14    1
    66    84    13    1
    67    14    86    1
    68    14    13    1
    69    14    85    1
    70    13    12    1
    71    13    83    1
    72    12    34    2
    73    12    53   am
    74    82    11    1
    75   108    53    1
    76    53    11    1
    77    81    11    1
    78    11    10    1
    79    10    79    1
    80    10    61    1
    81    10    80    1
    82    61     9    1
    83     9    78    1
    84     9     8    1
    85     9    77    1
    86   107    52    1
    87     8    52   am
    88     8    33    2
    89    75     7    1
    90    52     7    1
    91   112    60    1
    92    76     7    1
    93     7     6    1
    94   113    60    1
    95    60    31   am
    96    70     4    1
    97     6    74    1
    98     6     5    1
    99     6    73    1
   100     4    69    1
   101     4     5    1
   102     4     3    1
   103    71     5    1
   104    31     3    1
   105    31    50    2
   106    68     3    1
   107     5    72    1
   108     3    51    1
   109    51   106    1
   110    51     2   am
   111    32     2    2
   112     2     1    1
   113     1    67    1
   114     1    65    1
   115     1    66    1
@<TRIPOS>MOLECULE
ligand_e79c6d4556_2_run_14.pdb
 100 101 0 0 0
SMALL
GASTEIGER

@<TRIPOS>ATOM
      1    C       -1.9350   -3.9650  -18.3280 C.3     2  LIG2       -0.0549
      2    C       -2.3030   -5.1540  -17.3970 C.3     2  LIG2        0.0234
      3    C       -2.3050   -4.6370  -15.9290 C.3     2  LIG2       -0.0549
      4    C       -3.7170   -5.6890  -17.7690 C.3     2  LIG2        0.0628
      5    O       -4.5190   -4.6280  -18.3160 O.3     2  LIG2       -0.3266
      6    P       -6.0060   -4.9360  -18.8570 P.3     2  LIG2        0.2181
      7    O       -6.0760   -5.8160  -20.0510 O.2     2  LIG2       -0.5170
      8    O       -6.7380   -5.4430  -17.5170 O.3     2  LIG2       -0.4371
      9    O       -6.5970   -3.4500  -19.0260 O.3     2  LIG2       -0.2703
     10    P       -6.9390   -2.4380  -17.8250 P.3     2  LIG2        0.2182
     11    O       -8.1370   -2.7780  -17.0190 O.3     2  LIG2       -0.4371
     12    O       -5.5390   -2.3980  -17.0360 O.2     2  LIG2       -0.5170
     13    O       -6.9610   -1.0090  -18.5850 O.3     2  LIG2       -0.3246
     14    C       -7.1150    0.2420  -17.8850 C.3     2  LIG2        0.0837
     15    C       -7.4960    1.4060  -18.8380 C.3     2  LIG2        0.1141
     16    O       -6.6820    1.3070  -20.0290 O.3     2  LIG2       -0.3456
     17    C       -7.3850    0.6740  -21.1210 C.3     2  LIG2        0.1665
     18    N       -6.6450   -0.5080  -21.5780 N.ar    2  LIG2       -0.2894
     19    C       -7.0440   -1.5400  -22.4150 C.ar    2  LIG2        0.0994
     20    N       -6.1130   -2.5370  -22.6370 N.ar    2  LIG2       -0.2420
     21    C       -5.0940   -2.0670  -21.8710 C.ar    2  LIG2        0.0677
     22    C       -3.8330   -2.6600  -21.6780 C.3     2  LIG2        0.0456
     23    N       -3.4580   -3.8540  -22.2730 N.4     2  LIG2        0.3952
     24    N       -2.9200   -2.0670  -20.8800 N.2     2  LIG2       -0.2882
     25    C       -3.2800   -0.9000  -20.2970 C.2     2  LIG2        0.0793
     26    N       -4.4650   -0.2610  -20.4280 N.pl3   2  LIG2       -0.2908
     27    C       -5.3680   -0.8670  -21.2240 C.ar    2  LIG2        0.1254
     28    C       -8.7930    0.3560  -20.5810 C.3     2  LIG2        0.1294
     29    O       -9.8210    0.5400  -21.5590 O.3     2  LIG2       -0.3846
     30    C       -8.9410    1.2800  -19.3640 C.3     2  LIG2        0.1285
     31    O       -9.4180    2.5790  -19.7800 O.3     2  LIG2       -0.2748
     32    P      -10.9060    3.0890  -19.4190 P.3     2  LIG2        0.5323
     33    O      -11.3730    4.3630  -20.0170 O.2     2  LIG2       -0.2224
     34    O      -11.7960    1.8020  -19.7810 O.3     2  LIG2       -0.1145
     35    O      -10.8900    3.0120  -17.8150 O.3     2  LIG2       -0.1145
     36    C       -1.2290   -6.2840  -17.5370 C.3     2  LIG2        0.1380
     37    O        0.0970   -5.7470  -17.5990 O.3     2  LIG2       -0.3820
     38    C       -1.2770   -7.3310  -16.4070 C.2     2  LIG2        0.2423
     39    O       -2.1350   -8.1970  -16.3520 O.2     2  LIG2       -0.2730
     40    N       -0.2660   -7.2340  -15.4650 N.am    2  LIG2       -0.3127
     41    C       -0.1030   -8.1990  -14.3710 C.3     2  LIG2        0.0199
     42    C        0.1800   -7.5070  -13.0230 C.3     2  LIG2        0.0395
     43    C        1.6380   -7.0550  -12.8980 C.2     2  LIG2        0.2145
     44    O        2.3400   -6.8310  -13.8690 O.2     2  LIG2       -0.2758
     45    N        2.0790   -6.8540  -11.6030 N.am    2  LIG2       -0.3145
     46    C        3.3910   -6.2780  -11.2870 C.3     2  LIG2        0.0210
     47    C        4.4280   -7.3670  -10.9660 C.3     2  LIG2        0.0165
     48    S        4.0270   -8.1950   -9.3680 S.3     2  LIG2       -0.0865
     49    C        5.3240   -9.4490   -9.3030 C.2     2  LIG2        0.1921
     50    O        5.6200  -10.1420  -10.2620 O.2     2  LIG2       -0.2851
     51    C        5.9950   -9.5480   -7.9260 C.3     2  LIG2        0.0453
     52    C        5.2820  -10.4700   -6.8930 C.3     2  LIG2        0.0810
     53    C        6.1580  -10.5630   -5.6180 C.3     2  LIG2       -0.0351
     54    O        4.0420   -9.8730   -6.5120 O.3     2  LIG2       -0.3879
     55    C        5.0270  -11.8860   -7.4900 C.3     2  LIG2        0.0781
     56    C        4.4650  -12.8940   -6.4830 C.2     2  LIG2        0.3587
     57    O        3.4140  -12.7500   -5.8870 O.co2   2  LIG2       -0.2463
     58    O        5.1400  -14.0620   -6.4350 O.co2   2  LIG2       -0.2463
     59    H       -1.9280   -4.2980  -19.3450 H       2  LIG2        0.0237
     60    H       -0.9670   -3.5930  -18.0670 H       2  LIG2        0.0237
     61    H       -2.6590   -3.1850  -18.2140 H       2  LIG2        0.0237
     62    H       -1.3320   -4.2710  -15.6780 H       2  LIG2        0.0237
     63    H       -2.5660   -5.4390  -15.2700 H       2  LIG2        0.0237
     64    H       -3.0200   -3.8480  -15.8300 H       2  LIG2        0.0237
     65    H       -4.1910   -6.0750  -16.8910 H       2  LIG2        0.0570
     66    H       -3.6160   -6.4640  -18.5000 H       2  LIG2        0.0570
     67    H       -6.1920    0.4820  -17.4010 H       2  LIG2        0.0591
     68    H       -7.9090    0.1260  -17.1770 H       2  LIG2        0.0591
     69    H       -7.3670    2.3110  -18.2830 H       2  LIG2        0.0647
     70    H       -7.4700    1.2980  -21.9860 H       2  LIG2        0.0866
     71    H       -7.9810   -1.5610  -22.8470 H       2  LIG2        0.1030
     72    H       -4.8020   -2.6520  -22.1320 H       2  LIG2        0.0865
     73    H       -2.5120   -4.0970  -21.9820 H       2  LIG2       -0.0864
     74    H       -3.4860   -3.7510  -23.2880 H       2  LIG2       -0.0864
     75    H       -4.1020   -4.5930  -21.9880 H       2  LIG2       -0.0864
     76    H       -2.5770   -0.4510  -19.6890 H       2  LIG2        0.0996
     77    H       -4.6560    0.5910  -19.9720 H       2  LIG2        0.1544
     78    H       -8.9010   -0.6750  -20.3150 H       2  LIG2        0.0666
     79    H      -10.6410    0.8140  -21.1180 H       2  LIG2        0.2101
     80    H       -9.6330    0.9090  -18.6370 H       2  LIG2        0.0656
     81    H       -1.4750   -6.7770  -18.4540 H       2  LIG2        0.0696
     82    H        0.7070   -6.4290  -17.9220 H       2  LIG2        0.2105
     83    H        0.3700   -6.4850  -15.5330 H       2  LIG2        0.1488
     84    H        0.7140   -8.8490  -14.6030 H       2  LIG2        0.0467
     85    H       -1.0190   -8.7450  -14.2750 H       2  LIG2        0.0467
     86    H       -0.0370   -8.1930  -12.2310 H       2  LIG2        0.0374
     87    H       -0.4400   -6.6370  -12.9640 H       2  LIG2        0.0374
     88    H        1.4860   -7.1080  -10.8590 H       2  LIG2        0.1487
     89    H        3.2920   -5.6330  -10.4400 H       2  LIG2        0.0470
     90    H        3.7320   -5.7360  -12.1450 H       2  LIG2        0.0470
     91    H        5.3980   -6.9200  -10.8960 H       2  LIG2        0.0396
     92    H        4.4130   -8.0990  -11.7460 H       2  LIG2        0.0396
     93    H        6.0420   -8.5620   -7.5110 H       2  LIG2        0.0378
     94    H        6.9540   -9.9900   -8.1000 H       2  LIG2        0.0378
     95    H        6.3210   -9.5820   -5.2240 H       2  LIG2        0.0257
     96    H        7.0990  -11.0100   -5.8630 H       2  LIG2        0.0257
     97    H        5.6590  -11.1620   -4.8850 H       2  LIG2        0.0257
     98    H        3.4910  -10.5320   -6.0610 H       2  LIG2        0.2102
     99    H        5.9550  -12.2660   -7.8650 H       2  LIG2        0.0407
    100    H        4.2900  -11.7710   -8.2570 H       2  LIG2        0.0407
@<TRIPOS>BOND
     1    74    23    1
     2    71    19    1
     3    20    19   ar
     4    20    21   ar
     5    19    18   ar
     6    23    75    1
     7    23    73    1
     8    23    22    1
     9    72    21    1
    10    70    17    1
    11    21    27   ar
    12    22    24    1
    13    18    27   ar
    14    18    17    1
    15    29    79    1
    16    29    28    1
    17    27    26    1
    18    17    28    1
    19    17    16    1
    20    24    25    2
    21    28    78    1
    22    28    30    1
    23    26    25    1
    24    26    77    1
    25    25    76    1
    26     7     6    2
    27    16    15    1
    28    33    32    2
    29    34    32    1
    30    31    32    1
    31    31    30    1
    32    32    35    1
    33    30    15    1
    34    30    80    1
    35    59     1    1
    36     9     6    1
    37     9    10    1
    38     6     5    1
    39     6     8    1
    40    15    69    1
    41    15    14    1
    42    13    14    1
    43    13    10    1
    44    66     4    1
    45    81    36    1
    46     1    61    1
    47     1    60    1
    48     1     2    1
    49     5     4    1
    50    82    37    1
    51    14    67    1
    52    14    68    1
    53    10    12    2
    54    10    11    1
    55     4     2    1
    56     4    65    1
    57    37    36    1
    58    36     2    1
    59    36    38    1
    60     2     3    1
    61    38    39    2
    62    38    40   am
    63     3    64    1
    64     3    62    1
    65     3    63    1
    66    83    40    1
    67    40    41    1
    68    84    41    1
    69    41    85    1
    70    41    42    1
    71    44    43    2
    72    42    87    1
    73    42    43    1
    74    42    86    1
    75    43    45   am
    76    90    46    1
    77    92    47    1
    78    45    46    1
    79    45    88    1
    80    46    47    1
    81    46    89    1
    82    47    91    1
    83    47    48    1
    84    50    49    2
    85    48    49    1
    86    49    51    1
    87   100    55    1
    88    94    51    1
    89    51    93    1
    90    51    52    1
    91    99    55    1
    92    55    52    1
    93    55    56    1
    94    52    54    1
    95    52    53    1
    96    54    98    1
    97    56    58   ar
    98    56    57   ar
    99    96    53    1
   100    53    95    1
   101    53    97    1
@<TRIPOS>MOLECULE
ligand_e79c6d4556_1_run_14.pdb
 59 59 0 0 0
SMALL
GASTEIGER

@<TRIPOS>ATOM
      1    C        2.0270   -2.7520  -22.6460 C.3     2  LIG2       -0.0587
      2    C        2.6090   -3.4740  -21.4040 C.3     2  LIG2       -0.0225
      3    C        4.1200   -3.4890  -21.5120 C.2     2  LIG2       -0.0848
      4    C        4.9270   -2.7200  -20.7760 C.2     2  LIG2       -0.0873
      5    C        4.4370   -1.7460  -19.7260 C.3     2  LIG2       -0.0286
      6    C        2.8980   -1.5200  -19.7550 C.3     2  LIG2        0.0001
      7    C        2.4350   -0.8170  -18.4510 C.3     2  LIG2        0.0958
      8    O        3.2770    0.3270  -18.2070 O.3     2  LIG2       -0.4640
      9    C        3.2280    0.9470  -16.9890 C.2     2  LIG2        0.3125
     10    O        2.5190    0.5740  -16.0660 O.2     2  LIG2       -0.2503
     11    C        4.1760    2.1650  -16.9230 C.3     2  LIG2        0.0594
     12    C        4.1610    2.7840  -15.4990 C.3     2  LIG2       -0.0499
     13    C        5.6240    1.7180  -17.2560 C.3     2  LIG2       -0.0499
     14    C        3.7130    3.2390  -17.9400 C.3     2  LIG2       -0.0499
     15    C        2.1510   -2.8670  -20.0340 C.3     2  LIG2       -0.0288
     16    C        0.6000   -2.7550  -19.8930 C.3     2  LIG2       -0.0470
     17    C       -0.1600   -4.1020  -20.0170 C.3     2  LIG2       -0.0265
     18    C       -1.6890   -3.9460  -19.8280 C.3     2  LIG2        0.0576
     19    O       -2.2130   -3.1240  -20.8710 O.3     2  LIG2       -0.3917
     20    C       -2.3970   -5.3260  -19.8050 C.3     2  LIG2       -0.0002
     21    C       -3.9320   -5.2540  -19.5860 C.3     2  LIG2        0.0678
     22    O       -4.5680   -4.5590  -20.6600 O.3     2  LIG2       -0.3912
     23    C       -4.5510   -6.6670  -19.4560 C.3     2  LIG2        0.0752
     24    C       -6.0130   -6.6280  -19.0040 C.2     2  LIG2        0.3585
     25    O       -6.8280   -5.8110  -19.3950 O.co2   2  LIG2       -0.2463
     26    O       -6.3030   -7.4800  -18.0000 O.co2   2  LIG2       -0.2463
     27    H        2.3870   -3.2250  -23.5350 H       2  LIG2        0.0235
     28    H        2.3330   -1.7260  -22.6380 H       2  LIG2        0.0235
     29    H        0.9580   -2.8050  -22.6210 H       2  LIG2        0.0235
     30    H        2.2200   -4.4700  -21.4060 H       2  LIG2        0.0343
     31    H        4.5520   -4.1330  -22.1940 H       2  LIG2        0.0572
     32    H        5.9450   -2.7940  -20.9330 H       2  LIG2        0.0569
     33    H        4.9200   -0.8050  -19.8860 H       2  LIG2        0.0311
     34    H        4.6740   -2.1680  -18.7720 H       2  LIG2        0.0311
     35    H        2.6440   -0.8640  -20.5620 H       2  LIG2        0.0339
     36    H        2.5110   -1.4990  -17.6300 H       2  LIG2        0.0700
     37    H        1.4190   -0.5000  -18.5540 H       2  LIG2        0.0700
     38    H        3.1660    3.0970  -15.2580 H       2  LIG2        0.0240
     39    H        4.8170    3.6290  -15.4700 H       2  LIG2        0.0240
     40    H        4.4870    2.0540  -14.7890 H       2  LIG2        0.0240
     41    H        5.6480    1.2890  -18.2370 H       2  LIG2        0.0240
     42    H        5.9460    0.9900  -16.5410 H       2  LIG2        0.0240
     43    H        6.2760    2.5650  -17.2220 H       2  LIG2        0.0240
     44    H        2.7150    3.5450  -17.7060 H       2  LIG2        0.0240
     45    H        3.7380    2.8290  -18.9280 H       2  LIG2        0.0240
     46    H        4.3660    4.0850  -17.8880 H       2  LIG2        0.0240
     47    H        2.4330   -3.5580  -19.2670 H       2  LIG2        0.0310
     48    H        0.2410   -2.0990  -20.6590 H       2  LIG2        0.0269
     49    H        0.4080   -2.3870  -18.9070 H       2  LIG2        0.0269
     50    H        0.2100   -4.7730  -19.2710 H       2  LIG2        0.0290
     51    H        0.0060   -4.4770  -21.0050 H       2  LIG2        0.0290
     52    H       -1.8740   -3.4780  -18.8830 H       2  LIG2        0.0594
     53    H       -3.1800   -3.1940  -20.8830 H       2  LIG2        0.2098
     54    H       -2.2150   -5.8120  -20.7400 H       2  LIG2        0.0315
     55    H       -1.9950   -5.8630  -18.9710 H       2  LIG2        0.0315
     56    H       -4.0950   -4.7200  -18.6730 H       2  LIG2        0.0599
     57    H       -5.5280   -4.5610  -20.5220 H       2  LIG2        0.2098
     58    H       -4.4990   -7.1530  -20.4080 H       2  LIG2        0.0404
     59    H       -3.9950   -7.1980  -18.7120 H       2  LIG2        0.0404
@<TRIPOS>BOND
     1    27     1    1
     2     1    28    1
     3     1    29    1
     4     1     2    1
     5    31     3    1
     6     3     2    1
     7     3     4    2
     8    30     2    1
     9     2    15    1
    10    51    17    1
    11    32     4    1
    12    53    19    1
    13    19    18    1
    14     4     5    1
    15    54    20    1
    16    22    57    1
    17    22    21    1
    18    48    16    1
    19    35     6    1
    20    58    23    1
    21    15    16    1
    22    15     6    1
    23    15    47    1
    24    17    16    1
    25    17    18    1
    26    17    50    1
    27    16    49    1
    28    33     5    1
    29    18    20    1
    30    18    52    1
    31    20    21    1
    32    20    55    1
    33     6     5    1
    34     6     7    1
    35     5    34    1
    36    21    23    1
    37    21    56    1
    38    23    24    1
    39    23    59    1
    40    25    24   ar
    41    24    26   ar
    42    45    14    1
    43    37     7    1
    44     7     8    1
    45     7    36    1
    46    41    13    1
    47     8     9    1
    48    14    46    1
    49    14    44    1
    50    14    11    1
    51    13    43    1
    52    13    11    1
    53    13    42    1
    54     9    11    1
    55     9    10    2
    56    11    12    1
    57    12    39    1
    58    12    38    1
    59    12    40    1
