@<TRIPOS>MOLECULE
ligand_e79c6d4556_5_run_16.pdb
 111 113 0 0 0
SMALL
GASTEIGER

@<TRIPOS>ATOM
      1    P        1.2390   -7.6830  -14.8850 P.3     2  LIG2        0.2181
      2    P       -1.1940   -6.4180  -15.1860 P.3     2  LIG2        0.2182
      3    P       -6.5300   -6.1330  -18.9120 P.3     2  LIG2        0.5323
      4    O        1.9470   -9.0130  -15.0050 O.3     2  LIG2       -0.4371
      5    O       -0.4200   -7.9340  -15.1860 O.3     2  LIG2       -0.2703
      6    O       -2.5550   -6.5150  -14.5310 O.2     2  LIG2       -0.5170
      7    O       -1.3690   -5.8270  -16.7650 O.3     2  LIG2       -0.3246
      8    O       -1.8010   -6.7110  -19.6840 O.3     2  LIG2       -0.3456
      9    O       -4.4160   -5.5140  -21.3040 O.3     2  LIG2       -0.3846
     10    O       -4.9730   -5.4730  -18.7710 O.3     2  LIG2       -0.2748
     11    O       -7.5430   -5.2040  -18.2790 O.3     2  LIG2       -0.1145
     12    O       -6.9000   -6.3230  -20.5510 O.2     2  LIG2       -0.2224
     13    O       -6.5950   -7.6440  -18.1530 O.3     2  LIG2       -0.1145
     14    O       -0.2530   -5.3360  -14.2860 O.3     2  LIG2       -0.4371
     15    O        1.9030   -6.6270  -16.0280 O.2     2  LIG2       -0.5170
     16    O        1.4930   -7.0360  -13.3360 O.3     2  LIG2       -0.3266
     17    O        6.1570   -8.6040  -11.6000 O.2     2  LIG2       -0.2730
     18    O        8.8970   -7.1220  -15.1840 O.2     2  LIG2       -0.2758
     19    O        7.5930   -0.8320  -20.0380 O.2     2  LIG2       -0.2749
     20    O        4.2260    0.4350  -17.3390 O.2     2  LIG2       -0.2740
     21    O        5.2290   -6.4390  -10.2870 O.3     2  LIG2       -0.3820
     22    C       -2.3550   -6.6280  -17.3500 C.3     2  LIG2        0.0837
     23    C       -2.6800   -6.1380  -18.7520 C.3     2  LIG2        0.1141
     24    C       -4.0910   -6.4980  -19.1360 C.3     2  LIG2        0.1285
     25    C       -4.0080   -6.6710  -20.6300 C.3     2  LIG2        0.1294
     26    C       -2.5270   -6.8890  -20.8810 C.3     2  LIG2        0.1667
     27    C       -2.9040   -9.3910  -21.0700 C.ar    2  LIG2        0.1004
     28    C       -1.4930   -9.9150  -22.5660 C.ar    2  LIG2        0.1473
     29    C       -1.4150   -8.5840  -22.3610 C.ar    2  LIG2        0.1674
     30    C        0.2890   -8.3760  -23.9390 C.ar    2  LIG2        0.1205
     31    C       -0.6530  -10.5200  -23.4900 C.ar    2  LIG2        0.1472
     32    C        2.8730   -6.8290  -13.2310 C.3     2  LIG2        0.0628
     33    C        3.3310   -6.7690  -11.7690 C.3     2  LIG2        0.0234
     34    C        4.8620   -6.5850  -11.6300 C.3     2  LIG2        0.1380
     35    C        5.6970   -7.6540  -12.2900 C.2     2  LIG2        0.2423
     36    C        6.7880   -8.5910  -14.3580 C.3     2  LIG2        0.0199
     37    C        6.9180   -8.2780  -15.8420 C.3     2  LIG2        0.0395
     38    C        8.1070   -7.4240  -16.1190 C.2     2  LIG2        0.2145
     39    C        9.4810   -6.1150  -17.7910 C.3     2  LIG2        0.0206
     40    C        9.1880   -4.6490  -17.5320 C.3     2  LIG2        0.0097
     41    C        8.0690   -2.3710  -18.2500 C.3     2  LIG2        0.0702
     42    C        7.1580   -1.5000  -19.0590 C.2     2  LIG2        0.2235
     43    C        4.8210   -0.6000  -19.4230 C.3     2  LIG2        0.0993
     44    C        3.6070   -1.4390  -19.8050 C.3     2  LIG2       -0.0231
     45    C        3.8990   -2.2990  -21.0250 C.3     2  LIG2       -0.0201
     46    C        2.6580   -3.0850  -21.4270 C.3     2  LIG2        0.0646
     47    C        1.0760   -4.5010  -20.2500 C.cat   2  LIG2        0.3410
     48    C        4.4160    0.5720  -18.5800 C.2     2  LIG2        0.2308
     49    C        2.9390   -8.0840  -11.1180 C.3     2  LIG2       -0.0549
     50    C        2.5870   -5.6720  -11.0200 C.3     2  LIG2       -0.0549
     51    N       -2.2990   -8.2270  -21.4230 N.ar    2  LIG2       -0.2855
     52    N       -2.4250  -10.4620  -21.7650 N.ar    2  LIG2       -0.2306
     53    N       -0.5400   -7.7890  -23.0240 N.ar    2  LIG2       -0.2159
     54    N        0.2290   -9.7280  -24.1670 N.ar    2  LIG2       -0.2188
     55    N       -0.6970  -11.9210  -23.7270 N.pl3   2  LIG2       -0.3413
     56    N        5.9300   -7.6170  -13.6990 N.am    2  LIG2       -0.3127
     57    N        8.3200   -6.9240  -17.4390 N.am    2  LIG2       -0.3145
     58    N        5.7750   -1.4320  -18.7030 N.am    2  LIG2       -0.3033
     59    N        2.2610   -3.9880  -20.3550 N.pl3   2  LIG2       -0.2787
     60    N        0.0560   -4.1970  -21.1960 N.pl3   2  LIG2       -0.2919
     61    N        0.7880   -5.3800  -19.1700 N.pl3   2  LIG2       -0.2919
     62    N        4.2420    1.8500  -19.1860 N.am    2  LIG2       -0.3278
     63    S        7.6720   -4.1450  -18.3980 S.3     2  LIG2       -0.1499
     64    H       -5.3490   -5.3360  -21.1050 H       2  LIG2        0.2101
     65    H        6.1850   -6.2870  -10.2280 H       2  LIG2        0.2105
     66    H       -3.2410   -6.5900  -16.7500 H       2  LIG2        0.0591
     67    H       -1.9930   -7.6330  -17.4100 H       2  LIG2        0.0591
     68    H       -2.5730   -5.0730  -18.7560 H       2  LIG2        0.0647
     69    H       -4.4630   -7.3750  -18.6480 H       2  LIG2        0.0656
     70    H       -4.6350   -7.4670  -20.9740 H       2  LIG2        0.0666
     71    H       -2.1870   -6.1690  -21.5960 H       2  LIG2        0.0866
     72    H       -3.6440   -9.4580  -20.3540 H       2  LIG2        0.1030
     73    H        0.9640   -7.7990  -24.4640 H       2  LIG2        0.1048
     74    H        3.1210   -5.9050  -13.7100 H       2  LIG2        0.0570
     75    H        3.3690   -7.6520  -13.7010 H       2  LIG2        0.0570
     76    H        5.0770   -5.6850  -12.1670 H       2  LIG2        0.0696
     77    H        6.3660   -9.5670  -14.2410 H       2  LIG2        0.0467
     78    H        7.7600   -8.5500  -13.9130 H       2  LIG2        0.0467
     79    H        6.0370   -7.7650  -16.1670 H       2  LIG2        0.0374
     80    H        7.0370   -9.2010  -16.3700 H       2  LIG2        0.0374
     81    H        9.7070   -6.2540  -18.8280 H       2  LIG2        0.0470
     82    H       10.3150   -6.4190  -17.1950 H       2  LIG2        0.0470
     83    H       10.0080   -4.0580  -17.8830 H       2  LIG2        0.0392
     84    H        9.0540   -4.5010  -16.4800 H       2  LIG2        0.0392
     85    H        9.0740   -2.2180  -18.5850 H       2  LIG2        0.0471
     86    H        7.9460   -2.0990  -17.2230 H       2  LIG2        0.0471
     87    H        5.2760   -0.2240  -20.3150 H       2  LIG2        0.0594
     88    H        2.7870   -0.7870  -20.0250 H       2  LIG2        0.0289
     89    H        3.3660   -2.0820  -18.9850 H       2  LIG2        0.0289
     90    H        4.6890   -2.9820  -20.7940 H       2  LIG2        0.0296
     91    H        4.1870   -1.6650  -21.8370 H       2  LIG2        0.0296
     92    H        2.8720   -3.6550  -22.3070 H       2  LIG2        0.0655
     93    H        1.8600   -2.3990  -21.6180 H       2  LIG2        0.0655
     94    H        3.4390   -8.8900  -11.6140 H       2  LIG2        0.0237
     95    H        1.8810   -8.2200  -11.1970 H       2  LIG2        0.0237
     96    H        3.2210   -8.0700  -10.0860 H       2  LIG2        0.0237
     97    H        2.8320   -4.7210  -11.4440 H       2  LIG2        0.0237
     98    H        2.8740   -5.6870   -9.9890 H       2  LIG2        0.0237
     99    H        1.5330   -5.8370  -11.0990 H       2  LIG2        0.0237
    100    H       -1.3370  -12.4840  -23.2330 H       2  LIG2        0.1438
    101    H       -0.0880  -12.3290  -24.3840 H       2  LIG2        0.1438
    102    H        5.5000   -6.9150  -14.2390 H       2  LIG2        0.1488
    103    H        7.6580   -7.1320  -18.1370 H       2  LIG2        0.1487
    104    H        5.4560   -1.9680  -17.9410 H       2  LIG2        0.1495
    105    H        2.9300   -4.2210  -19.6720 H       2  LIG2        0.2578
    106    H       -0.8390   -4.5970  -21.1010 H       2  LIG2        0.2545
    107    H        0.2460   -3.5880  -21.9460 H       2  LIG2        0.2545
    108    H       -0.1100   -5.7750  -19.0820 H       2  LIG2        0.2545
    109    H        1.4870   -5.5940  -18.5100 H       2  LIG2        0.2545
    110    H        4.3890    1.9610  -20.1530 H       2  LIG2        0.1450
    111    H        3.9740    2.6230  -18.6370 H       2  LIG2        0.1450
@<TRIPOS>BOND
     1    73    30    1
     2   101    55    1
     3    54    30   ar
     4    54    31   ar
     5    30    53   ar
     6    55    31    1
     7    55   100    1
     8    31    28   ar
     9    53    29   ar
    10    28    29   ar
    11    28    52   ar
    12    29    51   ar
    13    92    46    1
    14   107    60    1
    15    91    45    1
    16    52    27   ar
    17    93    46    1
    18    71    26    1
    19    46    45    1
    20    46    59    1
    21    51    27   ar
    22    51    26    1
    23     9    64    1
    24     9    25    1
    25    60   106    1
    26    60    47    2
    27    27    72    1
    28    45    90    1
    29    45    44    1
    30    70    25    1
    31    26    25    1
    32    26     8    1
    33    25    24    1
    34    12     3    2
    35    59    47    1
    36    59   105    1
    37    87    43    1
    38    47    61    1
    39   110    62    1
    40    19    42    2
    41    88    44    1
    42    44    43    1
    43    44    89    1
    44     8    23    1
    45    43    58    1
    46    43    48    1
    47    62   111    1
    48    62    48   am
    49    61   108    1
    50    61   109    1
    51    24    10    1
    52    24    23    1
    53    24    69    1
    54    42    58   am
    55    42    41    1
    56     3    10    1
    57     3    11    1
    58     3    13    1
    59    81    39    1
    60    68    23    1
    61    23    22    1
    62    58   104    1
    63    85    41    1
    64    48    20    2
    65    63    41    1
    66    63    40    1
    67    41    86    1
    68   103    57    1
    69    83    40    1
    70    39    40    1
    71    39    57    1
    72    39    82    1
    73    40    84    1
    74    57    38   am
    75    67    22    1
    76    22     7    1
    77    22    66    1
    78     7     2    1
    79    80    37    1
    80    79    37    1
    81    38    37    1
    82    38    18    2
    83    15     1    2
    84    37    36    1
    85     2     5    1
    86     2     6    2
    87     2    14    1
    88     5     1    1
    89     4     1    1
    90     1    16    1
    91    36    77    1
    92    36    78    1
    93    36    56    1
    94   102    56    1
    95    74    32    1
    96    75    32    1
    97    56    35   am
    98    16    32    1
    99    32    33    1
   100    35    34    1
   101    35    17    2
   102    76    34    1
   103    33    34    1
   104    33    49    1
   105    33    50    1
   106    34    21    1
   107    94    49    1
   108    97    50    1
   109    95    49    1
   110    49    96    1
   111    99    50    1
   112    50    98    1
   113    21    65    1
@<TRIPOS>MOLECULE
ligand_e79c6d4556_5_run_16.pdb
 111 113 0 0 0
SMALL
GASTEIGER

@<TRIPOS>ATOM
      1    P        1.1440   -7.6780  -14.8820 P.3     2  LIG2        0.2181
      2    P       -1.2830   -6.4020  -15.1900 P.3     2  LIG2        0.2182
      3    P       -6.5370   -5.8580  -18.8120 P.3     2  LIG2        0.5323
      4    O        1.8580   -9.0000  -15.0470 O.3     2  LIG2       -0.4371
      5    O       -0.5050   -7.9160  -15.2430 O.3     2  LIG2       -0.2703
      6    O       -2.6420   -6.5240  -14.5390 O.2     2  LIG2       -0.5170
      7    O       -1.4590   -5.7580  -16.7480 O.3     2  LIG2       -0.3246
      8    O       -1.8610   -6.6910  -19.7130 O.3     2  LIG2       -0.3456
      9    O       -4.4000   -5.3350  -21.3300 O.3     2  LIG2       -0.3846
     10    O       -4.9490   -5.2600  -18.7950 O.3     2  LIG2       -0.2748
     11    O       -7.4800   -4.8360  -18.2150 O.3     2  LIG2       -0.1145
     12    O       -6.9920   -6.1640  -20.4120 O.2     2  LIG2       -0.2224
     13    O       -6.6280   -7.2980  -17.9280 O.3     2  LIG2       -0.1145
     14    O       -0.3430   -5.3500  -14.2540 O.3     2  LIG2       -0.4371
     15    O        1.8380   -6.5670  -15.9540 O.2     2  LIG2       -0.5170
     16    O        1.3530   -7.1070  -13.2970 O.3     2  LIG2       -0.3266
     17    O        6.3410   -7.8540  -12.0020 O.2     2  LIG2       -0.2730
     18    O        9.7030   -5.6700  -15.9250 O.2     2  LIG2       -0.2758
     19    O       10.8010  -10.8950  -12.1650 O.2     2  LIG2       -0.2749
     20    O        7.0450  -12.9550  -13.8100 O.2     2  LIG2       -0.2740
     21    O        5.0790   -6.1600  -10.3250 O.3     2  LIG2       -0.3820
     22    C       -2.4050   -6.5730  -17.3770 C.3     2  LIG2        0.0837
     23    C       -2.7020   -6.0640  -18.7800 C.3     2  LIG2        0.1141
     24    C       -4.1330   -6.3370  -19.1610 C.3     2  LIG2        0.1285
     25    C       -4.0630   -6.5150  -20.6550 C.3     2  LIG2        0.1294
     26    C       -2.5980   -6.8240  -20.9080 C.3     2  LIG2        0.1667
     27    C       -3.1740   -9.2840  -21.1430 C.ar    2  LIG2        0.1004
     28    C       -1.7300   -9.9180  -22.5640 C.ar    2  LIG2        0.1473
     29    C       -1.5530   -8.5990  -22.3410 C.ar    2  LIG2        0.1674
     30    C        0.2490   -8.5290  -23.8210 C.ar    2  LIG2        0.1205
     31    C       -0.8940  -10.5870  -23.4460 C.ar    2  LIG2        0.1472
     32    C        2.6820   -6.6790  -13.2180 C.3     2  LIG2        0.0628
     33    C        3.1930   -6.6680  -11.7720 C.3     2  LIG2        0.0234
     34    C        4.6580   -6.1800  -11.6600 C.3     2  LIG2        0.1380
     35    C        5.6500   -6.9320  -12.5120 C.2     2  LIG2        0.2423
     36    C        6.7690   -7.2890  -14.7410 C.3     2  LIG2        0.0199
     37    C        7.4120   -6.2930  -15.6950 C.3     2  LIG2        0.0395
     38    C        8.7060   -5.7810  -15.1610 C.2     2  LIG2        0.2145
     39    C       10.0340   -4.9130  -13.1920 C.3     2  LIG2        0.0206
     40    C       11.0280   -6.0320  -12.9400 C.3     2  LIG2        0.0097
     41    C       10.6700   -8.6440  -13.0050 C.3     2  LIG2        0.0702
     42    C       10.0730   -9.9520  -12.5820 C.2     2  LIG2        0.2235
     43    C        7.9910  -11.3590  -12.2850 C.3     2  LIG2        0.0993
     44    C        7.2720  -11.1650  -10.9560 C.3     2  LIG2       -0.0231
     45    C        8.2640  -10.9920   -9.8170 C.3     2  LIG2       -0.0201
     46    C        7.5640  -10.4340   -8.5860 C.3     2  LIG2        0.0646
     47    C        6.6610   -8.2870   -7.9000 C.cat   2  LIG2        0.3410
     48    C        7.0290  -11.7760  -13.3570 C.2     2  LIG2        0.2308
     49    C        3.1160   -8.0940  -11.2550 C.3     2  LIG2       -0.0549
     50    C        2.2790   -5.8320  -10.8880 C.3     2  LIG2       -0.0549
     51    N       -2.4540   -8.1730  -21.4500 N.ar    2  LIG2       -0.2855
     52    N       -2.7490  -10.3880  -21.8220 N.ar    2  LIG2       -0.2306
     53    N       -0.5770   -7.8780  -22.9470 N.ar    2  LIG2       -0.2159
     54    N        0.0880   -9.8690  -24.0650 N.ar    2  LIG2       -0.2188
     55    N       -1.0430  -11.9780  -23.6990 N.pl3   2  LIG2       -0.3413
     56    N        5.7750   -6.6330  -13.9050 N.am    2  LIG2       -0.3127
     57    N        8.8130   -5.4540  -13.7750 N.am    2  LIG2       -0.3145
     58    N        8.6560  -10.1180  -12.6600 N.am    2  LIG2       -0.3033
     59    N        7.3680   -8.9970   -8.7210 N.pl3   2  LIG2       -0.2787
     60    N        6.0040   -8.8860   -6.7870 N.pl3   2  LIG2       -0.2919
     61    N        6.5380   -6.8870   -8.1140 N.pl3   2  LIG2       -0.2919
     62    N        6.0910  -10.8340  -13.8690 N.am    2  LIG2       -0.3278
     63    S       10.3010   -7.2860  -11.8440 S.3     2  LIG2       -0.1499
     64    H       -5.3210   -5.1020  -21.1330 H       2  LIG2        0.2101
     65    H        5.8730   -5.6090  -10.2450 H       2  LIG2        0.2105
     66    H       -3.3090   -6.5700  -16.8040 H       2  LIG2        0.0591
     67    H       -2.0150   -7.5670  -17.4460 H       2  LIG2        0.0591
     68    H       -2.5290   -5.0080  -18.7840 H       2  LIG2        0.0647
     69    H       -4.5570   -7.1890  -18.6730 H       2  LIG2        0.0656
     70    H       -4.7380   -7.2710  -20.9980 H       2  LIG2        0.0666
     71    H       -2.2160   -6.1270  -21.6240 H       2  LIG2        0.0866
     72    H       -3.9560   -9.2920  -20.4700 H       2  LIG2        0.1030
     73    H        0.9990   -8.0070  -24.3010 H       2  LIG2        0.1048
     74    H        2.7510   -5.6880  -13.6170 H       2  LIG2        0.0570
     75    H        3.2850   -7.3620  -13.7780 H       2  LIG2        0.0570
     76    H        4.6440   -5.1850  -12.0530 H       2  LIG2        0.0696
     77    H        6.2960   -8.0630  -15.3090 H       2  LIG2        0.0467
     78    H        7.5300   -7.7010  -14.1120 H       2  LIG2        0.0467
     79    H        6.7440   -5.4690  -15.8390 H       2  LIG2        0.0374
     80    H        7.6050   -6.7920  -16.6220 H       2  LIG2        0.0374
     81    H        9.8010   -4.4310  -12.2660 H       2  LIG2        0.0470
     82    H       10.4640   -4.2060  -13.8700 H       2  LIG2        0.0470
     83    H       11.9060   -5.6270  -12.4800 H       2  LIG2        0.0392
     84    H       11.2810   -6.4890  -13.8740 H       2  LIG2        0.0392
     85    H       11.7320   -8.7580  -13.0700 H       2  LIG2        0.0471
     86    H       10.2390   -8.3840  -13.9490 H       2  LIG2        0.0471
     87    H        8.7200  -12.1350  -12.1740 H       2  LIG2        0.0594
     88    H        6.6610  -12.0220  -10.7600 H       2  LIG2        0.0289
     89    H        6.6700  -10.2830  -11.0200 H       2  LIG2        0.0289
     90    H        9.0360  -10.3160  -10.1210 H       2  LIG2        0.0296
     91    H        8.6860  -11.9450   -9.5750 H       2  LIG2        0.0296
     92    H        8.1630  -10.6280   -7.7210 H       2  LIG2        0.0655
     93    H        6.6100  -10.9070   -8.4850 H       2  LIG2        0.0655
     94    H        3.7450   -8.7230  -11.8490 H       2  LIG2        0.0237
     95    H        2.1050   -8.4410  -11.3160 H       2  LIG2        0.0237
     96    H        3.4420   -8.1220  -10.2370 H       2  LIG2        0.0237
     97    H        2.3000   -4.8140  -11.2150 H       2  LIG2        0.0237
     98    H        2.6150   -5.8880   -9.8740 H       2  LIG2        0.0237
     99    H        1.2790   -6.2070  -10.9530 H       2  LIG2        0.0237
    100    H       -1.7550  -12.4870  -23.2470 H       2  LIG2        0.1438
    101    H       -0.4350  -12.4330  -24.3250 H       2  LIG2        0.1438
    102    H        5.1730   -5.9670  -14.3080 H       2  LIG2        0.1488
    103    H        8.0340   -5.6010  -13.1920 H       2  LIG2        0.1487
    104    H        8.1080   -9.3660  -12.9800 H       2  LIG2        0.1495
    105    H        7.7970   -8.5390   -9.4800 H       2  LIG2        0.2578
    106    H        5.4710   -8.3310   -6.1730 H       2  LIG2        0.2545
    107    H        6.0830   -9.8550   -6.6330 H       2  LIG2        0.2545
    108    H        6.0020   -6.3400   -7.4950 H       2  LIG2        0.2545
    109    H        6.9870   -6.4650   -8.8810 H       2  LIG2        0.2545
    110    H        6.0760   -9.9140  -13.5190 H       2  LIG2        0.1450
    111    H        5.4580  -11.1020  -14.5740 H       2  LIG2        0.1450
@<TRIPOS>BOND
     1   101    55    1
     2    73    30    1
     3    54    30   ar
     4    54    31   ar
     5    30    53   ar
     6    55    31    1
     7    55   100    1
     8    31    28   ar
     9    53    29   ar
    10    28    29   ar
    11    28    52   ar
    12    29    51   ar
    13    52    27   ar
    14    71    26    1
    15    51    27   ar
    16    51    26    1
    17     9    64    1
    18     9    25    1
    19    27    72    1
    20    70    25    1
    21    26    25    1
    22    26     8    1
    23    25    24    1
    24    12     3    2
    25     8    23    1
    26    24    10    1
    27    24    23    1
    28    24    69    1
    29     3    10    1
    30     3    11    1
    31     3    13    1
    32    68    23    1
    33    23    22    1
    34    67    22    1
    35    22    66    1
    36    22     7    1
    37     7     2    1
    38    80    37    1
    39    15     1    2
    40    18    38    2
    41    79    37    1
    42    37    38    1
    43    37    36    1
    44    77    36    1
    45     5     2    1
    46     5     1    1
    47     2     6    2
    48     2    14    1
    49    38    57   am
    50     4     1    1
    51     1    16    1
    52    36    78    1
    53    36    56    1
    54   111    62    1
    55   102    56    1
    56    86    41    1
    57    56    35   am
    58    84    40    1
    59    82    39    1
    60    62   110    1
    61    62    48   am
    62    20    48    2
    63    75    32    1
    64    57    39    1
    65    57   103    1
    66    74    32    1
    67    48    43    1
    68    16    32    1
    69    32    33    1
    70    39    40    1
    71    39    81    1
    72    85    41    1
    73    41    42    1
    74    41    63    1
    75   104    58    1
    76    40    83    1
    77    40    63    1
    78    58    42   am
    79    58    43    1
    80    42    19    2
    81    35    17    2
    82    35    34    1
    83    43    87    1
    84    43    44    1
    85    76    34    1
    86    94    49    1
    87    33    34    1
    88    33    49    1
    89    33    50    1
    90    34    21    1
    91    95    49    1
    92    49    96    1
    93    97    50    1
    94    89    44    1
    95    44    88    1
    96    44    45    1
    97    99    50    1
    98    50    98    1
    99    21    65    1
   100    90    45    1
   101    45    91    1
   102    45    46    1
   103   105    59    1
   104   109    61    1
   105    59    46    1
   106    59    47    1
   107    46    93    1
   108    46    92    1
   109    61    47    2
   110    61   108    1
   111    47    60    1
   112    60   107    1
   113    60   106    1
@<TRIPOS>MOLECULE
ligand_e79c6d4556_5_run_16.pdb
 111 113 0 0 0
SMALL
GASTEIGER

@<TRIPOS>ATOM
      1    P        1.0760   -7.7370  -14.8770 P.3     2  LIG2        0.2181
      2    P       -1.3500   -6.4620  -15.1890 P.3     2  LIG2        0.2182
      3    P       -6.4270   -5.5210  -18.7770 P.3     2  LIG2        0.5323
      4    O        1.7700   -9.0780  -14.9640 O.3     2  LIG2       -0.4371
      5    O       -0.5920   -7.9850  -15.1210 O.3     2  LIG2       -0.2703
      6    O       -2.6960   -6.5050  -14.5010 O.2     2  LIG2       -0.5170
      7    O       -1.5530   -5.9590  -16.7950 O.3     2  LIG2       -0.3246
      8    O       -2.0960   -7.4520  -19.6870 O.3     2  LIG2       -0.3456
      9    O       -4.4380   -5.8260  -21.3520 O.3     2  LIG2       -0.3846
     10    O       -4.7460   -5.2910  -18.8320 O.3     2  LIG2       -0.2748
     11    O       -7.1040   -4.2670  -18.2710 O.3     2  LIG2       -0.1145
     12    O       -6.9860   -5.8630  -20.3360 O.2     2  LIG2       -0.2224
     13    O       -6.8050   -6.8200  -17.7590 O.3     2  LIG2       -0.1145
     14    O       -0.3760   -5.3430  -14.3730 O.3     2  LIG2       -0.4371
     15    O        1.7160   -6.7330  -16.0790 O.2     2  LIG2       -0.5170
     16    O        1.3800   -7.0330  -13.3620 O.3     2  LIG2       -0.3266
     17    O        5.7470   -8.9650  -11.8620 O.2     2  LIG2       -0.2730
     18    O        8.7350   -7.4500  -15.0610 O.2     2  LIG2       -0.2758
     19    O        7.1700   -4.6020  -21.3150 O.2     2  LIG2       -0.2749
     20    O        6.1190   -0.1720  -21.4580 O.2     2  LIG2       -0.2740
     21    O        5.2710   -6.6590  -10.4820 O.3     2  LIG2       -0.3820
     22    C       -2.4090   -6.9040  -17.3700 C.3     2  LIG2        0.0837
     23    C       -2.7130   -6.5410  -18.8160 C.3     2  LIG2        0.1141
     24    C       -4.1970   -6.5550  -19.0750 C.3     2  LIG2        0.1285
     25    C       -4.2880   -6.9470  -20.5260 C.3     2  LIG2        0.1294
     26    C       -2.9420   -7.5890  -20.8070 C.3     2  LIG2        0.1667
     27    C       -2.4490  -10.0740  -20.6490 C.ar    2  LIG2        0.1004
     28    C       -3.7990  -10.8600  -22.0860 C.ar    2  LIG2        0.1473
     29    C       -3.9570   -9.5210  -22.0480 C.ar    2  LIG2        0.1674
     30    C       -5.5890   -9.6030  -23.7110 C.ar    2  LIG2        0.1205
     31    C       -4.5570  -11.6190  -22.9660 C.ar    2  LIG2        0.1472
     32    C        2.7590   -6.7990  -13.3200 C.3     2  LIG2        0.0628
     33    C        3.2840   -6.7400  -11.8810 C.3     2  LIG2        0.0234
     34    C        4.8310   -6.7490  -11.8080 C.3     2  LIG2        0.1380
     35    C        5.4970   -7.9090  -12.5040 C.2     2  LIG2        0.2423
     36    C        6.5090   -8.9040  -14.5870 C.3     2  LIG2        0.0199
     37    C        6.8230   -8.5060  -16.0210 C.3     2  LIG2        0.0395
     38    C        8.0500   -7.6620  -16.0980 C.2     2  LIG2        0.2145
     39    C        9.6220   -6.2660  -17.5030 C.3     2  LIG2        0.0206
     40    C        9.3530   -4.8380  -17.0630 C.3     2  LIG2        0.0097
     41    C        8.3800   -3.9380  -19.3430 C.3     2  LIG2        0.0702
     42    C        7.2970   -3.7780  -20.3660 C.2     2  LIG2        0.2235
     43    C        5.3310   -2.4270  -21.2110 C.3     2  LIG2        0.0993
     44    C        4.0080   -2.2930  -20.4660 C.3     2  LIG2       -0.0231
     45    C        2.8300   -2.3830  -21.4230 C.3     2  LIG2       -0.0201
     46    C        1.5230   -2.1550  -20.6770 C.3     2  LIG2        0.0646
     47    C        0.2100   -3.3640  -19.0320 C.cat   2  LIG2        0.3410
     48    C        5.6200   -1.1920  -22.0110 C.2     2  LIG2        0.2308
     49    C        2.7570   -7.9670  -11.1570 C.3     2  LIG2       -0.0549
     50    C        2.7190   -5.5280  -11.1540 C.3     2  LIG2       -0.0549
     51    N       -3.1180   -9.0000  -21.1460 N.ar    2  LIG2       -0.2855
     52    N       -2.8520  -11.2480  -21.2120 N.ar    2  LIG2       -0.2306
     53    N       -4.8350   -8.8620  -22.8430 N.ar    2  LIG2       -0.2159
     54    N       -5.4480  -10.9670  -23.7680 N.ar    2  LIG2       -0.2188
     55    N       -4.4130  -13.0310  -23.0420 N.pl3   2  LIG2       -0.3413
     56    N        5.8030   -7.8330  -13.8990 N.am    2  LIG2       -0.3127
     57    N        8.4170   -7.0700  -17.3440 N.am    2  LIG2       -0.3145
     58    N        6.4020   -2.6690  -20.2540 N.am    2  LIG2       -0.3033
     59    N        1.3160   -3.2020  -19.6860 N.pl3   2  LIG2       -0.2787
     60    N       -0.9010   -2.4970  -19.2390 N.pl3   2  LIG2       -0.2919
     61    N        0.1030   -4.4230  -18.0890 N.pl3   2  LIG2       -0.2919
     62    N        5.3280   -1.1700  -23.4050 N.am    2  LIG2       -0.3278
     63    S        7.7330   -4.2850  -17.6730 S.3     2  LIG2       -0.1499
     64    H       -5.3030   -5.4180  -21.1900 H       2  LIG2        0.2101
     65    H        6.0840   -6.1310  -10.4470 H       2  LIG2        0.2105
     66    H       -3.3230   -6.9350  -16.8150 H       2  LIG2        0.0591
     67    H       -1.9310   -7.8610  -17.3480 H       2  LIG2        0.0591
     68    H       -2.3330   -5.5560  -18.9890 H       2  LIG2        0.0647
     69    H       -4.7410   -7.2240  -18.4410 H       2  LIG2        0.0656
     70    H       -5.1280   -7.5830  -20.7140 H       2  LIG2        0.0666
     71    H       -2.4890   -7.0930  -21.6400 H       2  LIG2        0.0866
     72    H       -1.7170  -10.0080  -19.9240 H       2  LIG2        0.1030
     73    H       -6.2700   -9.1330  -24.3280 H       2  LIG2        0.1048
     74    H        2.9670   -5.8660  -13.8020 H       2  LIG2        0.0570
     75    H        3.2490   -7.6080  -13.8200 H       2  LIG2        0.0570
     76    H        5.1330   -5.8790  -12.3530 H       2  LIG2        0.0696
     77    H        5.8960   -9.7810  -14.5920 H       2  LIG2        0.0467
     78    H        7.4280   -9.0950  -14.0740 H       2  LIG2        0.0467
     79    H        5.9970   -7.9560  -16.4190 H       2  LIG2        0.0374
     80    H        6.9940   -9.3990  -16.5870 H       2  LIG2        0.0374
     81    H        9.9190   -6.2700  -18.5310 H       2  LIG2        0.0470
     82    H       10.4030   -6.6790  -16.8990 H       2  LIG2        0.0470
     83    H       10.1160   -4.1980  -17.4560 H       2  LIG2        0.0392
     84    H        9.3560   -4.7970  -15.9940 H       2  LIG2        0.0392
     85    H        9.0120   -4.7490  -19.6390 H       2  LIG2        0.0471
     86    H        8.9140   -3.0130  -19.2940 H       2  LIG2        0.0471
     87    H        5.2640   -3.2520  -21.8890 H       2  LIG2        0.0594
     88    H        3.9820   -1.3470  -19.9670 H       2  LIG2        0.0289
     89    H        3.9330   -3.0930  -19.7590 H       2  LIG2        0.0289
     90    H        2.8140   -3.3540  -21.8740 H       2  LIG2        0.0296
     91    H        2.9360   -1.6310  -22.1770 H       2  LIG2        0.0296
     92    H        0.7120   -2.1640  -21.3750 H       2  LIG2        0.0655
     93    H        1.5690   -1.2090  -20.1790 H       2  LIG2        0.0655
     94    H        3.1300   -8.8500  -11.6350 H       2  LIG2        0.0237
     95    H        1.6880   -7.9690  -11.1900 H       2  LIG2        0.0237
     96    H        3.0830   -7.9480  -10.1380 H       2  LIG2        0.0237
     97    H        3.0640   -4.6340  -11.6300 H       2  LIG2        0.0237
     98    H        3.0450   -5.5390  -10.1350 H       2  LIG2        0.0237
     99    H        1.6490   -5.5600  -11.1860 H       2  LIG2        0.0237
    100    H       -3.7670  -13.4920  -22.4590 H       2  LIG2        0.1438
    101    H       -4.9590  -13.5480  -23.6780 H       2  LIG2        0.1438
    102    H        5.5300   -7.0350  -14.4060 H       2  LIG2        0.1488
    103    H        7.8350   -7.2100  -18.1260 H       2  LIG2        0.1487
    104    H        6.5140   -2.0450  -19.5010 H       2  LIG2        0.1495
    105    H        2.0590   -3.8220  -19.5020 H       2  LIG2        0.2578
    106    H       -1.7350   -2.6350  -18.7330 H       2  LIG2        0.2545
    107    H       -0.8360   -1.7600  -19.8880 H       2  LIG2        0.2545
    108    H       -0.7340   -4.5540  -17.5880 H       2  LIG2        0.2545
    109    H        0.8660   -5.0270  -17.9390 H       2  LIG2        0.2545
    110    H        4.9390   -1.9640  -23.8390 H       2  LIG2        0.1450
    111    H        5.5140   -0.3610  -23.9350 H       2  LIG2        0.1450
@<TRIPOS>BOND
     1    73    30    1
     2   111    62    1
     3   110    62    1
     4    54    30   ar
     5    54    31   ar
     6    30    53   ar
     7   101    55    1
     8    62    48   am
     9    55    31    1
    10    55   100    1
    11    31    28   ar
    12    53    29   ar
    13    91    45    1
    14    28    29   ar
    15    28    52   ar
    16    29    51   ar
    17    48    20    2
    18    48    43    1
    19    87    43    1
    20    90    45    1
    21    71    26    1
    22    45    46    1
    23    45    44    1
    24    92    46    1
    25     9    64    1
    26     9    25    1
    27    19    42    2
    28    52    27   ar
    29    43    44    1
    30    43    58    1
    31    51    26    1
    32    51    27   ar
    33    26    25    1
    34    26     8    1
    35    70    25    1
    36    46    93    1
    37    46    59    1
    38    27    72    1
    39    25    24    1
    40    44    88    1
    41    44    89    1
    42    42    58   am
    43    42    41    1
    44    12     3    2
    45    58   104    1
    46   107    60    1
    47     8    23    1
    48    59   105    1
    49    59    47    1
    50    85    41    1
    51    41    86    1
    52    41    63    1
    53    60    47    2
    54    60   106    1
    55    24    10    1
    56    24    23    1
    57    24    69    1
    58    47    61    1
    59    68    23    1
    60    10     3    1
    61    23    22    1
    62     3    11    1
    63     3    13    1
    64    81    39    1
    65   103    57    1
    66    61   109    1
    67    61   108    1
    68    63    40    1
    69    39    57    1
    70    39    40    1
    71    39    82    1
    72    83    40    1
    73    22    67    1
    74    22    66    1
    75    22     7    1
    76    57    38   am
    77    40    84    1
    78     7     2    1
    79    80    37    1
    80    79    37    1
    81    38    37    1
    82    38    18    2
    83    15     1    2
    84    37    36    1
    85     2     5    1
    86     2     6    2
    87     2    14    1
    88     5     1    1
    89     4     1    1
    90     1    16    1
    91    77    36    1
    92    36    78    1
    93    36    56    1
    94   102    56    1
    95    56    35   am
    96    75    32    1
    97    74    32    1
    98    16    32    1
    99    32    33    1
   100    35    17    2
   101    35    34    1
   102    76    34    1
   103    33    34    1
   104    33    49    1
   105    33    50    1
   106    34    21    1
   107    94    49    1
   108    97    50    1
   109    95    49    1
   110    99    50    1
   111    49    96    1
   112    50    98    1
   113    21    65    1
