@<TRIPOS>MOLECULE
ligand_e79c6d4556_3_run_5.pdb
 109 111 0 0 0
SMALL
GASTEIGER

@<TRIPOS>ATOM
      1    S        5.1190   -7.1740  -14.3810 S.3     2  LIG2       -0.0866
      2    C        5.0190   -7.2590  -12.5650 C.3     2  LIG2        0.0165
      3    C        4.0910   -6.1770  -12.0380 C.3     2  LIG2        0.0210
      4    C        1.9610   -7.4990  -12.2900 C.2     2  LIG2        0.2145
      5    C        0.6590   -7.6820  -12.9960 C.3     2  LIG2        0.0395
      6    C        0.8210   -7.6230  -14.5120 C.3     2  LIG2        0.0199
      7    C       -0.9950   -5.9840  -15.2280 C.2     2  LIG2        0.2423
      8    C       -2.2880   -5.7490  -15.9530 C.3     2  LIG2        0.1380
      9    C       -2.1040   -5.2900  -17.4140 C.3     2  LIG2        0.0234
     10    C       -3.1100   -6.0030  -18.3150 C.3     2  LIG2        0.0628
     11    C       -6.8790   -2.7510  -19.3150 C.3     2  LIG2        0.0837
     12    C       -6.6590   -1.8380  -18.1240 C.3     2  LIG2        0.1141
     13    C       -7.3540   -0.5220  -18.3480 C.3     2  LIG2        0.1285
     14    C       -6.5010    0.4430  -17.5730 C.3     2  LIG2        0.1294
     15    C       -5.1520   -0.2470  -17.5490 C.3     2  LIG2        0.1667
     16    C       -4.1250    0.3610  -19.7800 C.ar    2  LIG2        0.1004
     17    C       -2.5650    1.6730  -19.1740 C.ar    2  LIG2        0.1473
     18    C       -3.2250    1.2650  -18.0710 C.ar    2  LIG2        0.1674
     19    C       -1.8160    2.5120  -16.6920 C.ar    2  LIG2        0.1205
     20    C       -1.4860    2.5370  -19.0540 C.ar    2  LIG2        0.1472
     21    C       -0.7000   -5.5980  -17.9160 C.3     2  LIG2       -0.0549
     22    C       -2.3180   -3.7840  -17.5250 C.3     2  LIG2       -0.0549
     23    C        6.6310   -8.1330  -14.4370 C.2     2  LIG2        0.1894
     24    C        6.6200   -9.5050  -15.0160 C.3     2  LIG2        0.0162
     25    C        7.4830  -10.4340  -14.1850 C.3     2  LIG2       -0.0455
     26    C        6.7780  -10.7770  -12.8890 C.3     2  LIG2       -0.0526
     27    C        7.7350  -11.4990  -11.9530 C.3     2  LIG2       -0.0530
     28    C        6.9650  -12.1460  -10.8260 C.3     2  LIG2       -0.0531
     29    C        6.3380  -11.0860   -9.9330 C.3     2  LIG2       -0.0531
     30    C        5.6310  -11.7130   -8.7380 C.3     2  LIG2       -0.0533
     31    C        4.9420  -10.6670   -7.8730 C.3     2  LIG2       -0.0559
     32    C        4.1850  -11.3300   -6.7370 C.3     2  LIG2       -0.0653
     33    N        2.7610   -6.3570  -12.5920 N.am    2  LIG2       -0.3145
     34    N       -0.4390   -7.3000  -15.1730 N.am    2  LIG2       -0.3127
     35    N       -4.2130    0.4390  -18.4270 N.ar    2  LIG2       -0.2855
     36    N       -3.1080    1.1210  -20.2770 N.ar    2  LIG2       -0.2306
     37    N       -2.8780    1.6600  -16.8210 N.ar    2  LIG2       -0.2159
     38    N       -1.1300    2.9430  -17.7990 N.ar    2  LIG2       -0.2188
     39    N       -0.7650    2.9870  -20.1940 N.pl3   2  LIG2       -0.3413
     40    O        2.3430   -8.3450  -11.4360 O.2     2  LIG2       -0.2758
     41    O       -0.4210   -5.0220  -14.6560 O.2     2  LIG2       -0.2730
     42    O       -4.4210   -5.7690  -17.8760 O.3     2  LIG2       -0.3266
     43    O       -6.7930   -6.8230  -18.2100 O.3     2  LIG2       -0.4371
     44    O       -5.4750   -6.2940  -20.4340 O.3     2  LIG2       -0.2703
     45    O       -6.1540   -4.2200  -21.8620 O.2     2  LIG2       -0.5170
     46    O       -5.9560   -3.7990  -19.2770 O.3     2  LIG2       -0.3246
     47    O       -5.2850   -1.5920  -17.9530 O.3     2  LIG2       -0.3456
     48    O       -6.9590    0.5780  -16.2590 O.3     2  LIG2       -0.3846
     49    O       -8.6690   -0.5650  -17.8690 O.3     2  LIG2       -0.2748
     50    O       -9.0940    1.9590  -17.3280 O.3     2  LIG2       -0.1145
     51    O      -11.0550    0.6990  -18.5080 O.3     2  LIG2       -0.1145
     52    O       -8.7370    1.3850  -19.8510 O.2     2  LIG2       -0.2224
     53    O       -8.0530   -5.2400  -20.3830 O.3     2  LIG2       -0.4371
     54    O       -4.7640   -8.3520  -18.7470 O.2     2  LIG2       -0.5170
     55    O       -3.0960   -4.8640  -15.2330 O.3     2  LIG2       -0.3820
     56    O        7.6670   -7.6560  -14.0080 O.2     2  LIG2       -0.2852
     57    P       -5.4050   -6.7900  -18.8060 P.3     2  LIG2        0.2181
     58    P       -6.4050   -4.8700  -20.5140 P.3     2  LIG2        0.2182
     59    P       -9.3800    0.8960  -18.3630 P.3     2  LIG2        0.5323
     60    H        5.9960   -7.1200  -12.1510 H       2  LIG2        0.0396
     61    H        4.6340   -8.2170  -12.2820 H       2  LIG2        0.0396
     62    H        4.4680   -5.2170  -12.3220 H       2  LIG2        0.0470
     63    H        4.0420   -6.2430  -10.9710 H       2  LIG2        0.0470
     64    H       -0.0120   -6.9070  -12.6900 H       2  LIG2        0.0374
     65    H        0.2760   -8.6480  -12.7410 H       2  LIG2        0.0374
     66    H        1.1630   -8.5740  -14.8620 H       2  LIG2        0.0467
     67    H        1.5280   -6.8540  -14.7440 H       2  LIG2        0.0467
     68    H       -2.7820   -6.6960  -16.0150 H       2  LIG2        0.0696
     69    H       -2.9150   -7.0550  -18.2950 H       2  LIG2        0.0570
     70    H       -3.0080   -5.6260  -19.3110 H       2  LIG2        0.0570
     71    H       -7.8720   -3.1490  -19.2800 H       2  LIG2        0.0591
     72    H       -6.7490   -2.1950  -20.2190 H       2  LIG2        0.0591
     73    H       -7.0560   -2.3170  -17.2540 H       2  LIG2        0.0647
     74    H       -7.4470   -0.2520  -19.3790 H       2  LIG2        0.0656
     75    H       -6.4950    1.4230  -18.0040 H       2  LIG2        0.0666
     76    H       -4.7750   -0.2170  -16.5480 H       2  LIG2        0.0866
     77    H       -4.7560   -0.2080  -20.3660 H       2  LIG2        0.1030
     78    H       -1.5280    2.8330  -15.7550 H       2  LIG2        0.1048
     79    H       -0.5210   -6.6510  -17.8500 H       2  LIG2        0.0237
     80    H        0.0150   -5.0760  -17.3150 H       2  LIG2        0.0237
     81    H       -0.6080   -5.2830  -18.9340 H       2  LIG2        0.0237
     82    H       -3.3000   -3.5370  -17.1780 H       2  LIG2        0.0237
     83    H       -2.2140   -3.4830  -18.5470 H       2  LIG2        0.0237
     84    H       -1.5900   -3.2760  -16.9280 H       2  LIG2        0.0237
     85    H        7.0010   -9.4690  -16.0160 H       2  LIG2        0.0350
     86    H        5.6160   -9.8740  -15.0210 H       2  LIG2        0.0350
     87    H        8.4120   -9.9510  -13.9650 H       2  LIG2        0.0270
     88    H        7.6620  -11.3330  -14.7360 H       2  LIG2        0.0270
     89    H        5.9400  -11.4100  -13.0980 H       2  LIG2        0.0265
     90    H        6.4420   -9.8750  -12.4220 H       2  LIG2        0.0265
     91    H        8.4320  -10.7960  -11.5480 H       2  LIG2        0.0265
     92    H        8.2570  -12.2550  -12.5010 H       2  LIG2        0.0265
     93    H        7.6320  -12.7470  -10.2440 H       2  LIG2        0.0265
     94    H        6.1890  -12.7540  -11.2400 H       2  LIG2        0.0265
     95    H        5.6260  -10.5260  -10.5040 H       2  LIG2        0.0265
     96    H        7.1160  -10.4490   -9.5680 H       2  LIG2        0.0265
     97    H        6.3530  -12.2330   -8.1430 H       2  LIG2        0.0265
     98    H        4.8830  -12.3820   -9.1080 H       2  LIG2        0.0265
     99    H        4.2560  -10.1090   -8.4750 H       2  LIG2        0.0263
    100    H        5.6850  -10.0160   -7.4600 H       2  LIG2        0.0263
    101    H        3.4390  -11.9840   -7.1400 H       2  LIG2        0.0230
    102    H        3.7150  -10.5800   -6.1360 H       2  LIG2        0.0230
    103    H        4.8660  -11.8940   -6.1360 H       2  LIG2        0.0230
    104    H        2.3990   -5.6680  -13.1950 H       2  LIG2        0.1487
    105    H       -0.9360   -8.0320  -15.6060 H       2  LIG2        0.1488
    106    H       -1.0300    2.6880  -21.0940 H       2  LIG2        0.1438
    107    H       -0.0000    3.5980  -20.0840 H       2  LIG2        0.1438
    108    H       -7.8310    1.0030  -16.2630 H       2  LIG2        0.2101
    109    H       -2.6250   -4.0260  -15.1060 H       2  LIG2        0.2105
@<TRIPOS>BOND
     1    45    58    2
     2   106    39    1
     3    58    44    1
     4    58    53    1
     5    58    46    1
     6    44    57    1
     7    77    16    1
     8    36    16   ar
     9    36    17   ar
    10    72    11    1
    11    39   107    1
    12    39    20    1
    13    52    59    2
    14    16    35   ar
    15    74    13    1
    16    11    71    1
    17    11    46    1
    18    11    12    1
    19    70    10    1
    20    17    20   ar
    21    17    18   ar
    22    20    38   ar
    23    81    21    1
    24    57    54    2
    25    57    43    1
    26    57    42    1
    27    83    22    1
    28    51    59    1
    29    35    18   ar
    30    35    15    1
    31    59    49    1
    32    59    50    1
    33    13    12    1
    34    13    49    1
    35    13    14    1
    36    10    69    1
    37    10    42    1
    38    10     9    1
    39    12    47    1
    40    12    73    1
    41    18    37   ar
    42    75    14    1
    43    47    15    1
    44    21    79    1
    45    21     9    1
    46    21    80    1
    47    38    19   ar
    48    14    15    1
    49    14    48    1
    50    15    76    1
    51    22     9    1
    52    22    82    1
    53    22    84    1
    54     9     8    1
    55    37    19   ar
    56    19    78    1
    57   108    48    1
    58    85    24    1
    59    68     8    1
    60     8    55    1
    61     8     7    1
    62   105    34    1
    63    55   109    1
    64     7    34   am
    65     7    41    2
    66    34     6    1
    67    86    24    1
    68    24    23    1
    69    24    25    1
    70    66     6    1
    71    67     6    1
    72    88    25    1
    73     6     5    1
    74    23     1    1
    75    23    56    2
    76     1     2    1
    77    25    87    1
    78    25    26    1
    79   104    33    1
    80    89    26    1
    81     5    65    1
    82     5    64    1
    83     5     4    1
    84    26    90    1
    85    26    27    1
    86    33     4   am
    87    33     3    1
    88     2    61    1
    89     2    60    1
    90     2     3    1
    91    92    27    1
    92    62     3    1
    93     4    40    2
    94     3    63    1
    95    27    91    1
    96    27    28    1
    97    94    28    1
    98    28    93    1
    99    28    29    1
   100    95    29    1
   101    29    96    1
   102    29    30    1
   103    98    30    1
   104    30    97    1
   105    30    31    1
   106    99    31    1
   107    31   100    1
   108    31    32    1
   109   101    32    1
   110    32   102    1
   111    32   103    1
@<TRIPOS>MOLECULE
ligand_e79c6d4556_3_run_5.pdb
 109 111 0 0 0
SMALL
GASTEIGER

@<TRIPOS>ATOM
      1    S        4.9630   -7.1550  -14.3100 S.3     2  LIG2       -0.0866
      2    C        4.9680   -7.2290  -12.4900 C.3     2  LIG2        0.0165
      3    C        4.0000   -6.2070  -11.9190 C.3     2  LIG2        0.0210
      4    C        1.9100   -7.5690  -12.2780 C.2     2  LIG2        0.2145
      5    C        0.6270   -7.7480  -13.0180 C.3     2  LIG2        0.0395
      6    C        0.8150   -7.6100  -14.5250 C.3     2  LIG2        0.0199
      7    C       -1.0130   -5.9760  -15.2230 C.2     2  LIG2        0.2423
      8    C       -2.3000   -5.7390  -15.9590 C.3     2  LIG2        0.1380
      9    C       -2.1030   -5.2890  -17.4220 C.3     2  LIG2        0.0234
     10    C       -3.1000   -6.0090  -18.3270 C.3     2  LIG2        0.0628
     11    C       -6.8420   -2.7550  -19.3610 C.3     2  LIG2        0.0837
     12    C       -6.6260   -1.8460  -18.1670 C.3     2  LIG2        0.1141
     13    C       -7.3350   -0.5350  -18.3810 C.3     2  LIG2        0.1285
     14    C       -6.4870    0.4340  -17.6060 C.3     2  LIG2        0.1294
     15    C       -5.1310   -0.2430  -17.5910 C.3     2  LIG2        0.1667
     16    C       -4.1190    0.3830  -19.8240 C.ar    2  LIG2        0.1004
     17    C       -2.5730    1.7120  -19.2190 C.ar    2  LIG2        0.1473
     18    C       -3.2240    1.2930  -18.1150 C.ar    2  LIG2        0.1674
     19    C       -1.8260    2.5530  -16.7370 C.ar    2  LIG2        0.1205
     20    C       -1.5030    2.5880  -19.1000 C.ar    2  LIG2        0.1472
     21    C       -0.6950   -5.5980  -17.9080 C.3     2  LIG2       -0.0549
     22    C       -2.3180   -3.7840  -17.5440 C.3     2  LIG2       -0.0549
     23    C        6.6390   -7.7760  -14.4330 C.2     2  LIG2        0.1894
     24    C        7.6920   -6.9470  -15.0840 C.3     2  LIG2        0.0162
     25    C        7.5690   -7.0320  -16.5930 C.3     2  LIG2       -0.0455
     26    C        8.1510   -8.3390  -17.0890 C.3     2  LIG2       -0.0526
     27    C        7.8510   -8.5120  -18.5700 C.3     2  LIG2       -0.0530
     28    C        8.4730   -9.7910  -19.0780 C.3     2  LIG2       -0.0531
     29    C        8.0740  -10.0380  -20.5260 C.3     2  LIG2       -0.0531
     30    C        8.5120  -11.4200  -20.9950 C.3     2  LIG2       -0.0533
     31    C        8.1150  -11.6790  -22.4410 C.3     2  LIG2       -0.0559
     32    C        8.6420  -13.0250  -22.9040 C.3     2  LIG2       -0.0653
     33    N        2.6850   -6.3920  -12.5070 N.am    2  LIG2       -0.3145
     34    N       -0.4410   -7.2860  -15.1940 N.am    2  LIG2       -0.3127
     35    N       -4.2030    0.4560  -18.4700 N.ar    2  LIG2       -0.2855
     36    N       -3.1120    1.1570  -20.3220 N.ar    2  LIG2       -0.2306
     37    N       -2.8780    1.6880  -16.8650 N.ar    2  LIG2       -0.2159
     38    N       -1.1490    2.9950  -17.8450 N.ar    2  LIG2       -0.2188
     39    N       -0.7910    3.0500  -20.2410 N.pl3   2  LIG2       -0.3413
     40    O        2.2980   -8.4460  -11.4600 O.2     2  LIG2       -0.2758
     41    O       -0.4580   -5.0220  -14.6200 O.2     2  LIG2       -0.2730
     42    O       -4.4150   -5.7780  -17.8970 O.3     2  LIG2       -0.3266
     43    O       -6.7810   -6.8440  -18.2420 O.3     2  LIG2       -0.4371
     44    O       -5.4530   -6.3100  -20.4600 O.3     2  LIG2       -0.2703
     45    O       -6.1500   -4.2530  -21.9030 O.2     2  LIG2       -0.5170
     46    O       -5.9170   -3.8000  -19.3270 O.3     2  LIG2       -0.3246
     47    O       -5.2540   -1.5870  -18.0020 O.3     2  LIG2       -0.3456
     48    O       -6.9400    0.5580  -16.2890 O.3     2  LIG2       -0.3846
     49    O       -8.6470   -0.5940  -17.8960 O.3     2  LIG2       -0.2748
     50    O       -9.0940    1.9230  -17.3400 O.3     2  LIG2       -0.1145
     51    O      -11.0480    0.6490  -18.5170 O.3     2  LIG2       -0.1145
     52    O       -8.7430    1.3650  -19.8680 O.2     2  LIG2       -0.2224
     53    O       -8.0290   -5.2530  -20.3870 O.3     2  LIG2       -0.4371
     54    O       -4.7420   -8.3640  -18.7680 O.2     2  LIG2       -0.5170
     55    O       -3.1090   -4.8470  -15.2490 O.3     2  LIG2       -0.3820
     56    O        6.9150   -8.8710  -13.9750 O.2     2  LIG2       -0.2852
     57    P       -5.3900   -6.8050  -18.8310 P.3     2  LIG2        0.2181
     58    P       -6.3830   -4.8870  -20.5450 P.3     2  LIG2        0.2182
     59    P       -9.3740    0.8620  -18.3790 P.3     2  LIG2        0.5323
     60    H        5.9550   -7.0210  -12.1310 H       2  LIG2        0.0396
     61    H        4.6650   -8.2080  -12.1810 H       2  LIG2        0.0396
     62    H        4.3520   -5.2210  -12.1400 H       2  LIG2        0.0470
     63    H        3.9340   -6.3360  -10.8590 H       2  LIG2        0.0470
     64    H       -0.0700   -7.0070  -12.6870 H       2  LIG2        0.0374
     65    H        0.2650   -8.7350  -12.8190 H       2  LIG2        0.0374
     66    H        1.1880   -8.5330  -14.9150 H       2  LIG2        0.0467
     67    H        1.5050   -6.8120  -14.7050 H       2  LIG2        0.0467
     68    H       -2.7980   -6.6840  -16.0190 H       2  LIG2        0.0696
     69    H       -2.9020   -7.0600  -18.3020 H       2  LIG2        0.0570
     70    H       -2.9930   -5.6340  -19.3230 H       2  LIG2        0.0570
     71    H       -7.8340   -3.1560  -19.3290 H       2  LIG2        0.0591
     72    H       -6.7130   -2.1950  -20.2640 H       2  LIG2        0.0591
     73    H       -7.0140   -2.3330  -17.2970 H       2  LIG2        0.0647
     74    H       -7.4350   -0.2610  -19.4110 H       2  LIG2        0.0656
     75    H       -6.4930    1.4150  -18.0310 H       2  LIG2        0.0666
     76    H       -4.7500   -0.2150  -16.5920 H       2  LIG2        0.0866
     77    H       -4.7450   -0.1920  -20.4090 H       2  LIG2        0.1030
     78    H       -1.5390    2.8750  -15.7990 H       2  LIG2        0.1048
     79    H       -0.5150   -6.6510  -17.8340 H       2  LIG2        0.0237
     80    H        0.0150   -5.0720  -17.3050 H       2  LIG2        0.0237
     81    H       -0.5940   -5.2900  -18.9280 H       2  LIG2        0.0237
     82    H       -3.3030   -3.5360  -17.2070 H       2  LIG2        0.0237
     83    H       -2.2050   -3.4900  -18.5660 H       2  LIG2        0.0237
     84    H       -1.5960   -3.2710  -16.9430 H       2  LIG2        0.0237
     85    H        8.6560   -7.3050  -14.7880 H       2  LIG2        0.0350
     86    H        7.5710   -5.9280  -14.7810 H       2  LIG2        0.0350
     87    H        8.1000   -6.2170  -17.0380 H       2  LIG2        0.0270
     88    H        6.5350   -6.9840  -16.8640 H       2  LIG2        0.0270
     89    H        7.7180   -9.1510  -16.5420 H       2  LIG2        0.0265
     90    H        9.2110   -8.3300  -16.9430 H       2  LIG2        0.0265
     91    H        8.2540   -7.6820  -19.1120 H       2  LIG2        0.0265
     92    H        6.7910   -8.5570  -18.7100 H       2  LIG2        0.0265
     93    H        8.1380  -10.6100  -18.4760 H       2  LIG2        0.0265
     94    H        9.5380   -9.7050  -19.0220 H       2  LIG2        0.0265
     95    H        8.5350   -9.2970  -21.1450 H       2  LIG2        0.0265
     96    H        7.0070   -9.9810  -20.5960 H       2  LIG2        0.0265
     97    H        8.0530  -12.1580  -20.3720 H       2  LIG2        0.0265
     98    H        9.5790  -11.4690  -20.9300 H       2  LIG2        0.0265
     99    H        8.5230  -10.9090  -23.0620 H       2  LIG2        0.0263
    100    H        7.0480  -11.6830  -22.5110 H       2  LIG2        0.0263
    101    H        9.7100  -13.0320  -22.8380 H       2  LIG2        0.0230
    102    H        8.3470  -13.1940  -23.9190 H       2  LIG2        0.0230
    103    H        8.2410  -13.7980  -22.2830 H       2  LIG2        0.0230
    104    H        2.3160   -5.6830  -13.0820 H       2  LIG2        0.1487
    105    H       -0.9230   -8.0120  -15.6510 H       2  LIG2        0.1488
    106    H       -1.0560    2.7510  -21.1410 H       2  LIG2        0.1438
    107    H       -0.0340    3.6700  -20.1310 H       2  LIG2        0.1438
    108    H       -7.8160    0.9740  -16.2860 H       2  LIG2        0.2101
    109    H       -2.6360   -4.0090  -15.1260 H       2  LIG2        0.2105
@<TRIPOS>BOND
     1   102    32    1
     2    99    31    1
     3    32   101    1
     4    32    31    1
     5    32   103    1
     6   100    31    1
     7    31    30    1
     8    45    58    2
     9    95    29    1
    10   106    39    1
    11    30    98    1
    12    30    29    1
    13    30    97    1
    14    96    29    1
    15    58    44    1
    16    58    53    1
    17    58    46    1
    18    29    28    1
    19    44    57    1
    20    77    16    1
    21    36    16   ar
    22    36    17   ar
    23    72    11    1
    24    39   107    1
    25    39    20    1
    26    52    59    2
    27    16    35   ar
    28    74    13    1
    29    11    71    1
    30    11    46    1
    31    11    12    1
    32    70    10    1
    33    17    20   ar
    34    17    18   ar
    35    91    27    1
    36    20    38   ar
    37    28    94    1
    38    28    27    1
    39    28    93    1
    40    81    21    1
    41    57    54    2
    42    57    43    1
    43    57    42    1
    44    92    27    1
    45    27    26    1
    46    83    22    1
    47    51    59    1
    48    35    18   ar
    49    35    15    1
    50    13    12    1
    51    13    49    1
    52    13    14    1
    53    59    49    1
    54    59    50    1
    55    10    69    1
    56    10    42    1
    57    10     9    1
    58    12    47    1
    59    12    73    1
    60    18    37   ar
    61    75    14    1
    62    47    15    1
    63    21    79    1
    64    21     9    1
    65    21    80    1
    66    38    19   ar
    67    14    15    1
    68    14    48    1
    69    15    76    1
    70    22     9    1
    71    22    82    1
    72    22    84    1
    73     9     8    1
    74    26    90    1
    75    26    25    1
    76    26    89    1
    77    87    25    1
    78    37    19   ar
    79    88    25    1
    80    19    78    1
    81    25    24    1
    82    48   108    1
    83    68     8    1
    84     8    55    1
    85     8     7    1
    86   105    34    1
    87    55   109    1
    88     7    34   am
    89     7    41    2
    90    34     6    1
    91    24    85    1
    92    24    86    1
    93    24    23    1
    94    66     6    1
    95    67     6    1
    96     6     5    1
    97    23     1    1
    98    23    56    2
    99     1     2    1
   100   104    33    1
   101     5    65    1
   102     5    64    1
   103     5     4    1
   104    33     4   am
   105    33     3    1
   106     2    61    1
   107     2    60    1
   108     2     3    1
   109     4    40    2
   110    62     3    1
   111     3    63    1
@<TRIPOS>MOLECULE
ligand_e79c6d4556_3_run_5.pdb
 109 111 0 0 0
SMALL
GASTEIGER

@<TRIPOS>ATOM
      1    S        4.4110   -9.0630  -10.2350 S.3     2  LIG2       -0.0866
      2    C        3.9730   -7.3120   -9.9920 C.3     2  LIG2        0.0165
      3    C        4.0530   -6.5610  -11.3120 C.3     2  LIG2        0.0210
      4    C        1.6690   -6.9100  -12.0500 C.2     2  LIG2        0.2145
      5    C        0.7150   -7.5930  -12.9710 C.3     2  LIG2        0.0395
      6    C        0.9540   -7.2060  -14.4270 C.3     2  LIG2        0.0199
      7    C       -1.0530   -5.8220  -15.1710 C.2     2  LIG2        0.2423
      8    C       -2.3250   -5.7420  -15.9640 C.3     2  LIG2        0.1380
      9    C       -2.1160   -5.2890  -17.4250 C.3     2  LIG2        0.0234
     10    C       -3.1120   -6.0010  -18.3380 C.3     2  LIG2        0.0628
     11    C       -6.8620   -2.7380  -19.4000 C.3     2  LIG2        0.0837
     12    C       -6.6500   -1.8200  -18.2110 C.3     2  LIG2        0.1141
     13    C       -7.3700   -0.5170  -18.4310 C.3     2  LIG2        0.1285
     14    C       -6.5280    0.4630  -17.6620 C.3     2  LIG2        0.1294
     15    C       -5.1670   -0.2030  -17.6470 C.3     2  LIG2        0.1667
     16    C       -4.1410    0.3940  -19.8820 C.ar    2  LIG2        0.1004
     17    C       -2.6400    1.7780  -19.2910 C.ar    2  LIG2        0.1473
     18    C       -3.2940    1.3700  -18.1850 C.ar    2  LIG2        0.1674
     19    C       -1.9480    2.7010  -16.8220 C.ar    2  LIG2        0.1205
     20    C       -1.5950    2.6860  -19.1810 C.ar    2  LIG2        0.1472
     21    C       -0.7070   -5.6050  -17.9040 C.3     2  LIG2       -0.0549
     22    C       -2.3220   -3.7830  -17.5440 C.3     2  LIG2       -0.0549
     23    C        4.9490   -9.2600   -8.5380 C.2     2  LIG2        0.1894
     24    C        6.2830   -8.7460   -8.1170 C.3     2  LIG2        0.0162
     25    C        7.2130   -9.8990   -7.7960 C.3     2  LIG2       -0.0455
     26    C        7.6490  -10.5850   -9.0740 C.3     2  LIG2       -0.0526
     27    C        8.5180  -11.7890   -8.7460 C.3     2  LIG2       -0.0530
     28    C        9.0350  -12.4170  -10.0190 C.3     2  LIG2       -0.0531
     29    C        9.9820  -13.5640   -9.6990 C.3     2  LIG2       -0.0531
     30    C       10.6030  -14.1410  -10.9660 C.3     2  LIG2       -0.0533
     31    C       11.5350  -15.3050  -10.6610 C.3     2  LIG2       -0.0559
     32    C       12.0840  -15.8970  -11.9460 C.3     2  LIG2       -0.0653
     33    N        3.0720   -7.0930  -12.2410 N.am    2  LIG2       -0.3145
     34    N       -0.3030   -7.0390  -15.1500 N.am    2  LIG2       -0.3127
     35    N       -4.2460    0.4990  -18.5310 N.ar    2  LIG2       -0.2855
     36    N       -3.1490    1.1820  -20.3860 N.ar    2  LIG2       -0.2306
     37    N       -2.9760    1.8050  -16.9410 N.ar    2  LIG2       -0.2159
     38    N       -1.2690    3.1330  -17.9320 N.ar    2  LIG2       -0.2188
     39    N       -0.8800    3.1380  -20.3240 N.pl3   2  LIG2       -0.3413
     40    O        1.2370   -6.1780  -11.1180 O.2     2  LIG2       -0.2758
     41    O       -0.6690   -4.8210  -14.5130 O.2     2  LIG2       -0.2730
     42    O       -4.4280   -5.7630  -17.9170 O.3     2  LIG2       -0.3266
     43    O       -6.7980   -6.8120  -18.2820 O.3     2  LIG2       -0.4371
     44    O       -5.4490   -6.2860  -20.4890 O.3     2  LIG2       -0.2703
     45    O       -6.1350   -4.2300  -21.9380 O.2     2  LIG2       -0.5170
     46    O       -5.9320   -3.7790  -19.3580 O.3     2  LIG2       -0.3246
     47    O       -5.2800   -1.5500  -18.0500 O.3     2  LIG2       -0.3456
     48    O       -6.9800    0.5900  -16.3450 O.3     2  LIG2       -0.3846
     49    O       -8.6800   -0.5830  -17.9430 O.3     2  LIG2       -0.2748
     50    O       -9.1460    1.9340  -17.4000 O.3     2  LIG2       -0.1145
     51    O      -11.0920    0.6380  -18.5660 O.3     2  LIG2       -0.1145
     52    O       -8.7950    1.3640  -19.9250 O.2     2  LIG2       -0.2224
     53    O       -8.0290   -5.2370  -20.4440 O.3     2  LIG2       -0.4371
     54    O       -4.7660   -8.3460  -18.7920 O.2     2  LIG2       -0.5170
     55    O       -3.2610   -4.9410  -15.3050 O.3     2  LIG2       -0.3820
     56    O        4.2200   -9.8070   -7.7300 O.2     2  LIG2       -0.2852
     57    P       -5.4030   -6.7830  -18.8590 P.3     2  LIG2        0.2181
     58    P       -6.3820   -4.8650  -20.5830 P.3     2  LIG2        0.2182
     59    P       -9.4200    0.8650  -18.4330 P.3     2  LIG2        0.5323
     60    H        4.6530   -6.8720   -9.2930 H       2  LIG2        0.0396
     61    H        2.9730   -7.2520   -9.6180 H       2  LIG2        0.0396
     62    H        5.0330   -6.6760  -11.7260 H       2  LIG2        0.0470
     63    H        3.8530   -5.5240  -11.1410 H       2  LIG2        0.0470
     64    H       -0.2830   -7.3200  -12.7000 H       2  LIG2        0.0374
     65    H        0.8650   -8.6480  -12.8800 H       2  LIG2        0.0374
     66    H        1.5280   -7.9740  -14.9010 H       2  LIG2        0.0467
     67    H        1.4770   -6.2730  -14.4440 H       2  LIG2        0.0467
     68    H       -2.7080   -6.7390  -16.0310 H       2  LIG2        0.0696
     69    H       -2.9200   -7.0530  -18.3150 H       2  LIG2        0.0570
     70    H       -2.9960   -5.6250  -19.3330 H       2  LIG2        0.0570
     71    H       -7.8520   -3.1430  -19.3660 H       2  LIG2        0.0591
     72    H       -6.7340   -2.1830  -20.3050 H       2  LIG2        0.0591
     73    H       -7.0330   -2.3060  -17.3380 H       2  LIG2        0.0647
     74    H       -7.4740   -0.2490  -19.4620 H       2  LIG2        0.0656
     75    H       -6.5430    1.4420  -18.0930 H       2  LIG2        0.0666
     76    H       -4.7840   -0.1670  -16.6480 H       2  LIG2        0.0866
     77    H       -4.7440   -0.2120  -20.4600 H       2  LIG2        0.1030
     78    H       -1.6830    3.0540  -15.8890 H       2  LIG2        0.1048
     79    H       -0.5330   -6.6590  -17.8310 H       2  LIG2        0.0237
     80    H        0.0020   -5.0850  -17.2940 H       2  LIG2        0.0237
     81    H       -0.5980   -5.2950  -18.9220 H       2  LIG2        0.0237
     82    H       -3.3070   -3.5310  -17.2130 H       2  LIG2        0.0237
     83    H       -2.2010   -3.4860  -18.5640 H       2  LIG2        0.0237
     84    H       -1.6010   -3.2760  -16.9370 H       2  LIG2        0.0237
     85    H        6.1660   -8.1330   -7.2470 H       2  LIG2        0.0350
     86    H        6.7030   -8.1710   -8.9160 H       2  LIG2        0.0350
     87    H        6.7030  -10.6030   -7.1720 H       2  LIG2        0.0270
     88    H        8.0770   -9.5220   -7.2890 H       2  LIG2        0.0270
     89    H        8.2070   -9.8970   -9.6740 H       2  LIG2        0.0265
     90    H        6.7820  -10.9120   -9.6110 H       2  LIG2        0.0265
     91    H        7.9380  -12.5090   -8.2060 H       2  LIG2        0.0265
     92    H        9.3480  -11.4710   -8.1500 H       2  LIG2        0.0265
     93    H        9.5560  -11.6780  -10.5900 H       2  LIG2        0.0265
     94    H        8.2060  -12.7980  -10.5790 H       2  LIG2        0.0265
     95    H        9.4380  -14.3350   -9.1960 H       2  LIG2        0.0265
     96    H       10.7700  -13.1880   -9.0800 H       2  LIG2        0.0265
     97    H       11.1590  -13.3720  -11.4600 H       2  LIG2        0.0265
     98    H        9.8110  -14.5040  -11.5880 H       2  LIG2        0.0265
     99    H       10.9940  -16.0590  -10.1290 H       2  LIG2        0.0263
    100    H       12.3510  -14.9470  -10.0690 H       2  LIG2        0.0263
    101    H       11.2760  -16.2580  -12.5470 H       2  LIG2        0.0230
    102    H       12.7430  -16.7070  -11.7120 H       2  LIG2        0.0230
    103    H       12.6210  -15.1450  -12.4850 H       2  LIG2        0.0230
    104    H        3.3830   -7.5950  -13.0270 H       2  LIG2        0.1487
    105    H       -0.6540   -7.8090  -15.6520 H       2  LIG2        0.1488
    106    H       -1.1250    2.8090  -21.2190 H       2  LIG2        0.1438
    107    H       -0.1410    3.7800  -20.2200 H       2  LIG2        0.1438
    108    H       -7.8590    1.0010  -16.3430 H       2  LIG2        0.2101
    109    H       -2.8910   -4.0550  -15.1700 H       2  LIG2        0.2105
@<TRIPOS>BOND
     1    45    58    2
     2   106    39    1
     3    58    44    1
     4    58    53    1
     5    58    46    1
     6    44    57    1
     7    77    16    1
     8    36    16   ar
     9    36    17   ar
    10    39   107    1
    11    39    20    1
    12    72    11    1
    13    52    59    2
    14    16    35   ar
    15    74    13    1
    16    11    71    1
    17    11    46    1
    18    11    12    1
    19    70    10    1
    20    17    20   ar
    21    17    18   ar
    22    20    38   ar
    23    81    21    1
    24    57    54    2
    25    57    43    1
    26    57    42    1
    27    51    59    1
    28    83    22    1
    29    35    18   ar
    30    35    15    1
    31    59    49    1
    32    59    50    1
    33    13    12    1
    34    13    49    1
    35    13    14    1
    36    10    69    1
    37    10    42    1
    38    10     9    1
    39    12    47    1
    40    12    73    1
    41    18    37   ar
    42    75    14    1
    43    47    15    1
    44    38    19   ar
    45    21    79    1
    46    21     9    1
    47    21    80    1
    48    14    15    1
    49    14    48    1
    50    15    76    1
    51    22     9    1
    52    22    82    1
    53    22    84    1
    54     9     8    1
    55    37    19   ar
    56    19    78    1
    57    48   108    1
    58    68     8    1
    59     8    55    1
    60     8     7    1
    61   105    34    1
    62    55   109    1
    63     7    34   am
    64     7    41    2
    65    34     6    1
    66    66     6    1
    67    67     6    1
    68     6     5    1
    69   104    33    1
    70     5    65    1
    71     5    64    1
    72     5     4    1
    73   101    32    1
    74   103    32    1
    75    33     4   am
    76    33     3    1
    77     4    40    2
    78    32   102    1
    79    32    31    1
    80    62     3    1
    81    98    30    1
    82    97    30    1
    83     3    63    1
    84     3     2    1
    85    30    31    1
    86    30    29    1
    87    31    99    1
    88    31   100    1
    89    93    28    1
    90    94    28    1
    91     1     2    1
    92     1    23    1
    93    28    29    1
    94    28    27    1
    95     2    61    1
    96     2    60    1
    97    29    95    1
    98    29    96    1
    99    89    26    1
   100    90    26    1
   101    26    27    1
   102    26    25    1
   103    86    24    1
   104    27    91    1
   105    27    92    1
   106    23    24    1
   107    23    56    2
   108    24    25    1
   109    24    85    1
   110    25    88    1
   111    25    87    1
