@<TRIPOS>MOLECULE
ligand_e79c6d4556_4_run_20.pdb
 113 115 0 0 0
SMALL
GASTEIGER

@<TRIPOS>ATOM
      1    C        4.7540  -12.6960   -3.0760 C.3     2  LIG2        0.0122
      2    C        4.8110  -12.7780   -4.5570 C.2     2  LIG2        0.2105
      3    C        6.1760  -12.6220   -6.6790 C.3     2  LIG2        0.0991
      4    C        5.7790  -11.2800   -7.2850 C.3     2  LIG2       -0.0259
      5    C        6.7010  -10.1550   -6.8290 C.3     2  LIG2       -0.0495
      6    C        6.2000   -8.7910   -7.2930 C.3     2  LIG2       -0.0373
      7    C        6.4090   -8.5940   -8.7880 C.3     2  LIG2        0.0116
      8    C        4.4160   -7.1360   -9.3690 C.2     2  LIG2        0.2229
      9    C        3.9000   -5.8230   -9.8500 C.3     2  LIG2        0.0702
     10    C        2.7990   -6.5770  -12.1230 C.3     2  LIG2        0.0097
     11    C        2.9230   -6.9920  -13.5760 C.3     2  LIG2        0.0206
     12    C        0.5270   -6.8890  -14.3450 C.2     2  LIG2        0.2145
     13    C       -0.7190   -7.6080  -14.7310 C.3     2  LIG2        0.0395
     14    C       -1.8300   -6.6270  -15.0700 C.3     2  LIG2        0.0199
     15    C       -2.4450   -5.0430  -16.9300 C.2     2  LIG2        0.2423
     16    C       -2.2020   -4.5100  -18.3100 C.3     2  LIG2        0.1380
     17    C       -2.6990   -5.4290  -19.4520 C.3     2  LIG2        0.0234
     18    C       -2.0160   -6.7900  -19.4110 C.3     2  LIG2       -0.0549
     19    C       -2.4160   -4.7950  -20.8030 C.3     2  LIG2       -0.0549
     20    C       -4.2150   -5.6080  -19.3620 C.3     2  LIG2        0.0628
     21    C       -6.7390   -2.4620  -19.1650 C.3     2  LIG2        0.0837
     22    C       -6.6650   -1.4060  -18.0730 C.3     2  LIG2        0.1141
     23    C       -5.3840    0.3800  -17.5400 C.3     2  LIG2        0.1665
     24    C       -6.7910    0.9160  -17.7370 C.3     2  LIG2        0.1294
     25    C       -7.4810   -0.2040  -18.4660 C.3     2  LIG2        0.1285
     26    C       -4.4950    1.4010  -19.6850 C.ar    2  LIG2        0.0999
     27    C       -2.7260    2.3520  -18.9970 C.ar    2  LIG2        0.1287
     28    C       -1.5430    3.0530  -18.8170 C.3     2  LIG2        0.2004
     29    C       -1.6380    2.4850  -16.5020 C.2     2  LIG2        0.1049
     30    C       -3.3190    1.7500  -17.9450 C.ar    2  LIG2        0.1528
     31    C        7.5810  -12.9530   -7.0590 C.2     2  LIG2        0.2308
     32    O        3.7620  -13.0310   -5.2090 O.2     2  LIG2       -0.2761
     33    O        3.6080   -8.0710   -9.1220 O.2     2  LIG2       -0.2749
     34    O        0.5510   -5.6280  -14.3420 O.2     2  LIG2       -0.2758
     35    O       -3.3760   -4.5540  -16.2380 O.2     2  LIG2       -0.2730
     36    O       -2.7330   -3.2220  -18.4180 O.3     2  LIG2       -0.3820
     37    O       -4.7260   -6.2930  -20.4720 O.3     2  LIG2       -0.3266
     38    O       -7.0300   -5.9010  -19.0230 O.3     2  LIG2       -0.4371
     39    O       -7.0950   -6.7900  -21.4810 O.2     2  LIG2       -0.5170
     40    O       -6.4410   -4.2310  -21.1550 O.3     2  LIG2       -0.2703
     41    O       -9.0490   -5.0000  -20.7260 O.3     2  LIG2       -0.4371
     42    O       -8.4980   -2.8500  -22.0980 O.2     2  LIG2       -0.5170
     43    O       -8.0700   -2.7240  -19.4970 O.3     2  LIG2       -0.3246
     44    O       -5.3380   -0.9870  -17.8900 O.3     2  LIG2       -0.3456
     45    O       -7.3700    1.1340  -16.4830 O.3     2  LIG2       -0.3846
     46    O       -8.8180   -0.3510  -18.0710 O.3     2  LIG2       -0.2748
     47    O      -11.3060    0.6170  -18.7830 O.3     2  LIG2       -0.1145
     48    O       -9.3750    2.3700  -17.8960 O.3     2  LIG2       -0.1145
     49    O       -9.1770    1.1450  -20.2030 O.2     2  LIG2       -0.2224
     50    O        8.4970  -12.8500   -6.2040 O.2     2  LIG2       -0.2740
     51    N        6.0550  -12.5810   -5.2280 N.am    2  LIG2       -0.3042
     52    N        5.8260   -7.3340   -9.2320 N.am    2  LIG2       -0.3146
     53    N        1.6950   -7.6380  -14.0130 N.am    2  LIG2       -0.3145
     54    N       -1.6320   -6.0960  -16.4080 N.am    2  LIG2       -0.3127
     55    N       -4.4400    1.1460  -18.3510 N.ar    2  LIG2       -0.2877
     56    N       -3.4430    2.1520  -20.1190 N.ar    2  LIG2       -0.2346
     57    N       -0.8900    3.7020  -19.9020 N.3     2  LIG2       -0.2985
     58    N       -1.0170    3.1050  -17.5570 N.2     2  LIG2       -0.2420
     59    N       -2.8050    1.7960  -16.6900 N.pl3   2  LIG2       -0.1840
     60    N        7.8920  -13.3860   -8.3800 N.am    2  LIG2       -0.3278
     61    S        4.2620   -5.6200  -11.6190 S.3     2  LIG2       -0.1499
     62    P       -6.3560   -5.8300  -20.5720 P.3     2  LIG2        0.2181
     63    P       -8.0270   -3.6630  -20.9110 P.3     2  LIG2        0.2182
     64    P       -9.6470    0.9520  -18.7790 P.3     2  LIG2        0.5323
     65    H        5.7290  -12.4740   -2.6930 H       2  LIG2        0.0322
     66    H        4.4200  -13.6310   -2.6790 H       2  LIG2        0.0322
     67    H        4.0740  -11.9220   -2.7870 H       2  LIG2        0.0322
     68    H        5.5190  -13.3770   -7.0570 H       2  LIG2        0.0594
     69    H        4.7780  -11.0490   -6.9860 H       2  LIG2        0.0288
     70    H        5.8560  -11.3620   -8.3490 H       2  LIG2        0.0288
     71    H        7.6770  -10.3220   -7.2340 H       2  LIG2        0.0266
     72    H        6.7230  -10.1560   -5.7590 H       2  LIG2        0.0266
     73    H        6.7330   -8.0280   -6.7640 H       2  LIG2        0.0280
     74    H        5.1510   -8.7340   -7.0920 H       2  LIG2        0.0280
     75    H        5.9450   -9.4000   -9.3160 H       2  LIG2        0.0462
     76    H        7.4600   -8.5730   -8.9870 H       2  LIG2        0.0462
     77    H        4.3690   -5.0350   -9.3000 H       2  LIG2        0.0471
     78    H        2.8400   -5.7880   -9.7040 H       2  LIG2        0.0471
     79    H        1.9230   -5.9740  -12.0010 H       2  LIG2        0.0392
     80    H        2.7270   -7.4530  -11.5130 H       2  LIG2        0.0392
     81    H        3.7400   -7.6760  -13.6810 H       2  LIG2        0.0470
     82    H        3.0980   -6.1240  -14.1760 H       2  LIG2        0.0470
     83    H       -1.0340   -8.2250  -13.9160 H       2  LIG2        0.0374
     84    H       -0.5160   -8.2040  -15.5960 H       2  LIG2        0.0374
     85    H       -1.8200   -5.8230  -14.3640 H       2  LIG2        0.0467
     86    H       -2.7720   -7.1340  -15.0280 H       2  LIG2        0.0467
     87    H       -1.1400   -4.4760  -18.4390 H       2  LIG2        0.0696
     88    H       -0.9560   -6.6590  -19.4740 H       2  LIG2        0.0237
     89    H       -2.3510   -7.3820  -20.2370 H       2  LIG2        0.0237
     90    H       -2.2610   -7.2850  -18.4950 H       2  LIG2        0.0237
     91    H       -1.3620   -4.6480  -20.9150 H       2  LIG2        0.0237
     92    H       -2.9160   -3.8510  -20.8660 H       2  LIG2        0.0237
     93    H       -2.7710   -5.4390  -21.5800 H       2  LIG2        0.0237
     94    H       -4.6740   -4.6430  -19.3090 H       2  LIG2        0.0570
     95    H       -4.4290   -6.1870  -18.4880 H       2  LIG2        0.0570
     96    H       -6.2210   -2.1090  -20.0320 H       2  LIG2        0.0591
     97    H       -6.2850   -3.3630  -18.8090 H       2  LIG2        0.0591
     98    H       -7.0440   -1.8350  -17.1690 H       2  LIG2        0.0647
     99    H       -5.1100    0.4820  -16.5100 H       2  LIG2        0.0866
    100    H       -6.8450    1.8420  -18.2700 H       2  LIG2        0.0666
    101    H       -7.5300   -0.0410  -19.5220 H       2  LIG2        0.0656
    102    H       -5.2500    1.0630  -20.3020 H       2  LIG2        0.1030
    103    H       -1.2220    2.5380  -15.5590 H       2  LIG2        0.1015
    104    H       -3.6380   -3.2150  -18.0690 H       2  LIG2        0.2105
    105    H       -8.2260    1.5750  -16.5950 H       2  LIG2        0.2101
    106    H        6.8620  -12.4110   -4.6890 H       2  LIG2        0.1494
    107    H        6.4290   -6.5870   -9.4480 H       2  LIG2        0.1487
    108    H        1.6690   -8.6200  -14.0810 H       2  LIG2        0.1487
    109    H       -0.9180   -6.4720  -16.9710 H       2  LIG2        0.1488
    110    H       -1.2770    3.6590  -20.8070 H       2  LIG2        0.1209
    111    H       -0.0520    4.1950  -19.7490 H       2  LIG2        0.1209
    112    H        7.1780  -13.4670   -9.0520 H       2  LIG2        0.1450
    113    H        8.8210  -13.6040   -8.6200 H       2  LIG2        0.1450
@<TRIPOS>BOND
     1    42    63    2
     2    93    19    1
     3    39    62    2
     4    40    63    1
     5    40    62    1
     6    91    19    1
     7    63    41    1
     8    63    43    1
     9    92    19    1
    10   110    57    1
    11    19    17    1
    12    62    37    1
    13    62    38    1
    14    37    20    1
    15   102    26    1
    16    89    18    1
    17    49    64    2
    18    56    26   ar
    19    56    27   ar
    20    96    21    1
    21    57   111    1
    22    57    28    1
    23    26    55   ar
    24   101    25    1
    25    43    21    1
    26    88    18    1
    27    17    18    1
    28    17    20    1
    29    17    16    1
    30    18    90    1
    31    20    94    1
    32    20    95    1
    33    21    97    1
    34    21    22    1
    35    27    28    1
    36    27    30   ar
    37    28    58    1
    38    47    64    1
    39    64    46    1
    40    64    48    1
    41    25    22    1
    42    25    46    1
    43    25    24    1
    44    87    16    1
    45    36    16    1
    46    36   104    1
    47    55    30   ar
    48    55    23    1
    49    16    15    1
    50   100    24    1
    51    22    44    1
    52    22    98    1
    53    30    59    1
    54    44    23    1
    55    24    23    1
    56    24    45    1
    57    58    29    2
    58    23    99    1
    59   109    54    1
    60    15    54   am
    61    15    35    2
    62    59    29    1
    63   105    45    1
    64    29   103    1
    65    54    14    1
    66    84    13    1
    67    14    86    1
    68    14    13    1
    69    14    85    1
    70    13    12    1
    71    13    83    1
    72    12    34    2
    73    12    53   am
    74    82    11    1
    75   108    53    1
    76    53    11    1
    77    81    11    1
    78    11    10    1
    79    10    79    1
    80    10    61    1
    81    10    80    1
    82    61     9    1
    83     9    78    1
    84     9     8    1
    85     9    77    1
    86   107    52    1
    87     8    52   am
    88     8    33    2
    89    75     7    1
    90    52     7    1
    91   112    60    1
    92    76     7    1
    93     7     6    1
    94   113    60    1
    95    60    31   am
    96    70     4    1
    97     6    74    1
    98     6     5    1
    99     6    73    1
   100     4    69    1
   101     4     5    1
   102     4     3    1
   103    71     5    1
   104    31     3    1
   105    31    50    2
   106    68     3    1
   107     5    72    1
   108     3    51    1
   109    51   106    1
   110    51     2   am
   111    32     2    2
   112     2     1    1
   113     1    67    1
   114     1    65    1
   115     1    66    1
@<TRIPOS>MOLECULE
ligand_e79c6d4556_4_run_20.pdb
 113 115 0 0 0
SMALL
GASTEIGER

@<TRIPOS>ATOM
      1    C       11.5440  -10.3530  -14.2220 C.3     2  LIG2        0.0122
      2    C       10.0950  -10.3080  -14.5430 C.2     2  LIG2        0.2105
      3    C        7.9140   -9.0300  -14.5090 C.3     2  LIG2        0.0991
      4    C        7.1170   -9.6750  -13.3820 C.3     2  LIG2       -0.0259
      5    C        7.3380   -8.9660  -12.0500 C.3     2  LIG2       -0.0495
      6    C        6.6550   -9.6980  -10.8990 C.3     2  LIG2       -0.0373
      7    C        6.7360   -8.9050   -9.6020 C.3     2  LIG2        0.0116
      8    C        4.6620   -7.4440   -9.6140 C.2     2  LIG2        0.2229
      9    C        4.0610   -6.0920   -9.7930 C.3     2  LIG2        0.0702
     10    C        2.7330   -6.4870  -12.0330 C.3     2  LIG2        0.0097
     11    C        2.9080   -7.0180  -13.4430 C.3     2  LIG2        0.0206
     12    C        0.5350   -6.9080  -14.2790 C.2     2  LIG2        0.2145
     13    C       -0.7130   -7.6220  -14.6690 C.3     2  LIG2        0.0395
     14    C       -1.8210   -6.6370  -15.0060 C.3     2  LIG2        0.0199
     15    C       -2.4230   -5.0390  -16.8580 C.2     2  LIG2        0.2423
     16    C       -2.1680   -4.4920  -18.2310 C.3     2  LIG2        0.1380
     17    C       -2.6430   -5.4050  -19.3860 C.3     2  LIG2        0.0234
     18    C       -1.9550   -6.7630  -19.3450 C.3     2  LIG2       -0.0549
     19    C       -2.3430   -4.7600  -20.7290 C.3     2  LIG2       -0.0549
     20    C       -4.1600   -5.5920  -19.3210 C.3     2  LIG2        0.0628
     21    C       -6.6920   -2.4320  -19.1430 C.3     2  LIG2        0.0837
     22    C       -6.6380   -1.3780  -18.0480 C.3     2  LIG2        0.1141
     23    C       -5.3890    0.4300  -17.5090 C.3     2  LIG2        0.1665
     24    C       -6.8060    0.9400  -17.7050 C.3     2  LIG2        0.1294
     25    C       -7.4750   -0.1900  -18.4380 C.3     2  LIG2        0.1285
     26    C       -4.5180    1.4730  -19.6510 C.ar    2  LIG2        0.0999
     27    C       -2.7660    2.4530  -18.9600 C.ar    2  LIG2        0.1287
     28    C       -1.5960    3.1750  -18.7770 C.3     2  LIG2        0.2004
     29    C       -1.6820    2.5980  -16.4630 C.2     2  LIG2        0.1049
     30    C       -3.3480    1.8380  -17.9090 C.ar    2  LIG2        0.1528
     31    C        7.5270   -7.5950  -14.6460 C.2     2  LIG2        0.2308
     32    O        9.5440  -11.3030  -15.0840 O.2     2  LIG2       -0.2761
     33    O        3.9140   -8.4340   -9.3880 O.2     2  LIG2       -0.2749
     34    O        0.5800   -5.6490  -14.3250 O.2     2  LIG2       -0.2758
     35    O       -3.3640   -4.5610  -16.1720 O.2     2  LIG2       -0.2730
     36    O       -2.7090   -3.2080  -18.3340 O.3     2  LIG2       -0.3820
     37    O       -4.6520   -6.2630  -20.4470 O.3     2  LIG2       -0.3266
     38    O       -6.9790   -5.8920  -19.0300 O.3     2  LIG2       -0.4371
     39    O       -7.0040   -6.7520  -21.5000 O.2     2  LIG2       -0.5170
     40    O       -6.3590   -4.1960  -21.1320 O.3     2  LIG2       -0.2703
     41    O       -8.9700   -4.9750  -20.7420 O.3     2  LIG2       -0.4371
     42    O       -8.4080   -2.8200  -22.1020 O.2     2  LIG2       -0.5170
     43    O       -8.0170   -2.6980  -19.4940 O.3     2  LIG2       -0.3246
     44    O       -5.3180   -0.9360  -17.8630 O.3     2  LIG2       -0.3456
     45    O       -7.3880    1.1450  -16.4510 O.3     2  LIG2       -0.3846
     46    O       -8.8090   -0.3610  -18.0430 O.3     2  LIG2       -0.2748
     47    O      -11.3130    0.5630  -18.7550 O.3     2  LIG2       -0.1145
     48    O       -9.4150    2.3480  -17.8610 O.3     2  LIG2       -0.1145
     49    O       -9.1940    1.1350  -20.1720 O.2     2  LIG2       -0.2224
     50    O        8.3090   -6.6990  -14.2400 O.2     2  LIG2       -0.2740
     51    N        9.3430   -9.1320  -14.2450 N.am    2  LIG2       -0.3042
     52    N        6.0760   -7.6130   -9.7420 N.am    2  LIG2       -0.3146
     53    N        1.6810   -7.6610  -13.8860 N.am    2  LIG2       -0.3145
     54    N       -1.6110   -6.0920  -16.3380 N.am    2  LIG2       -0.3127
     55    N       -4.4580    1.2150  -18.3180 N.ar    2  LIG2       -0.2877
     56    N       -3.4790    2.2440  -20.0820 N.ar    2  LIG2       -0.2346
     57    N       -0.9550    3.8390  -19.8600 N.3     2  LIG2       -0.2985
     58    N       -1.0720    3.2330  -17.5170 N.2     2  LIG2       -0.2420
     59    N       -2.8360    1.8890  -16.6540 N.pl3   2  LIG2       -0.1840
     60    N        6.2810   -7.2330  -15.2350 N.am    2  LIG2       -0.3278
     61    S        4.2150   -5.5640  -11.5240 S.3     2  LIG2       -0.1499
     62    P       -6.2800   -5.8020  -20.5670 P.3     2  LIG2        0.2181
     63    P       -7.9510   -3.6340  -20.9090 P.3     2  LIG2        0.2182
     64    P       -9.6610    0.9280  -18.7490 P.3     2  LIG2        0.5323
     65    H       11.8380   -9.4290  -13.7710 H       2  LIG2        0.0322
     66    H       12.1040  -10.5050  -15.1210 H       2  LIG2        0.0322
     67    H       11.7340  -11.1580  -13.5440 H       2  LIG2        0.0322
     68    H        7.6960   -9.5450  -15.4220 H       2  LIG2        0.0594
     69    H        7.4200  -10.6970  -13.2840 H       2  LIG2        0.0288
     70    H        6.0780   -9.6020  -13.6270 H       2  LIG2        0.0288
     71    H        6.9400   -7.9750  -12.1150 H       2  LIG2        0.0266
     72    H        8.3890   -8.9460  -11.8550 H       2  LIG2        0.0266
     73    H        7.1330  -10.6450  -10.7570 H       2  LIG2        0.0280
     74    H        5.6220   -9.8250  -11.1490 H       2  LIG2        0.0280
     75    H        7.7640   -8.7480   -9.3500 H       2  LIG2        0.0462
     76    H        6.2430   -9.4590   -8.8300 H       2  LIG2        0.0462
     77    H        4.5710   -5.3920   -9.1630 H       2  LIG2        0.0471
     78    H        3.0250   -6.1310   -9.5290 H       2  LIG2        0.0471
     79    H        1.8830   -5.8370  -12.0030 H       2  LIG2        0.0392
     80    H        2.5860   -7.3100  -11.3650 H       2  LIG2        0.0392
     81    H        3.7070   -7.7300  -13.4570 H       2  LIG2        0.0470
     82    H        3.1370   -6.2050  -14.1000 H       2  LIG2        0.0470
     83    H       -1.0310   -8.2400  -13.8550 H       2  LIG2        0.0374
     84    H       -0.5100   -8.2170  -15.5340 H       2  LIG2        0.0374
     85    H       -1.8160   -5.8400  -14.2920 H       2  LIG2        0.0467
     86    H       -2.7630   -7.1430  -14.9780 H       2  LIG2        0.0467
     87    H       -1.1050   -4.4480  -18.3470 H       2  LIG2        0.0696
     88    H       -0.8950   -6.6270  -19.3910 H       2  LIG2        0.0237
     89    H       -2.2750   -7.3510  -20.1800 H       2  LIG2        0.0237
     90    H       -2.2110   -7.2650  -18.4360 H       2  LIG2        0.0237
     91    H       -1.2890   -4.6080  -20.8230 H       2  LIG2        0.0237
     92    H       -2.8470   -3.8180  -20.7920 H       2  LIG2        0.0237
     93    H       -2.6830   -5.4010  -21.5160 H       2  LIG2        0.0237
     94    H       -4.6240   -4.6300  -19.2610 H       2  LIG2        0.0570
     95    H       -4.3840   -6.1830  -18.4580 H       2  LIG2        0.0570
     96    H       -6.1630   -2.0750  -20.0020 H       2  LIG2        0.0591
     97    H       -6.2390   -3.3320  -18.7820 H       2  LIG2        0.0591
     98    H       -7.0090   -1.8160  -17.1450 H       2  LIG2        0.0647
     99    H       -5.1170    0.5330  -16.4790 H       2  LIG2        0.0866
    100    H       -6.8760    1.8670  -18.2360 H       2  LIG2        0.0666
    101    H       -7.5260   -0.0240  -19.4940 H       2  LIG2        0.0656
    102    H       -5.2660    1.1230  -20.2690 H       2  LIG2        0.1030
    103    H       -1.2670    2.6570  -15.5200 H       2  LIG2        0.1015
    104    H       -3.6180   -3.2110  -17.9960 H       2  LIG2        0.2105
    105    H       -8.2520    1.5710  -16.5620 H       2  LIG2        0.2101
    106    H        9.8070   -8.3610  -13.8470 H       2  LIG2        0.1494
    107    H        6.6290   -6.8210   -9.9330 H       2  LIG2        0.1487
    108    H        1.6400   -8.6450  -13.9150 H       2  LIG2        0.1487
    109    H       -0.8890   -6.4600  -16.8970 H       2  LIG2        0.1488
    110    H       -1.3410    3.7910  -20.7650 H       2  LIG2        0.1209
    111    H       -0.1260    4.3470  -19.7050 H       2  LIG2        0.1209
    112    H        5.6660   -7.9320  -15.5540 H       2  LIG2        0.1450
    113    H        6.0360   -6.2830  -15.3230 H       2  LIG2        0.1450
@<TRIPOS>BOND
     1    42    63    2
     2    93    19    1
     3    39    62    2
     4    40    63    1
     5    40    62    1
     6    63    41    1
     7    63    43    1
     8    91    19    1
     9    92    19    1
    10   110    57    1
    11    19    17    1
    12    62    37    1
    13    62    38    1
    14    37    20    1
    15   102    26    1
    16    89    18    1
    17    49    64    2
    18    56    26   ar
    19    56    27   ar
    20    96    21    1
    21    57   111    1
    22    57    28    1
    23    26    55   ar
    24   101    25    1
    25    43    21    1
    26    88    18    1
    27    17    18    1
    28    17    20    1
    29    17    16    1
    30    18    90    1
    31    20    94    1
    32    20    95    1
    33    21    97    1
    34    21    22    1
    35    27    28    1
    36    27    30   ar
    37    28    58    1
    38    47    64    1
    39    64    46    1
    40    64    48    1
    41    25    22    1
    42    25    46    1
    43    25    24    1
    44    87    16    1
    45    36    16    1
    46    36   104    1
    47    55    30   ar
    48    55    23    1
    49   100    24    1
    50    16    15    1
    51    22    44    1
    52    22    98    1
    53    30    59    1
    54    44    23    1
    55    24    23    1
    56    24    45    1
    57    58    29    2
    58    23    99    1
    59   109    54    1
    60    15    54   am
    61    15    35    2
    62    59    29    1
    63   105    45    1
    64    29   103    1
    65    54    14    1
    66   112    60    1
    67    84    13    1
    68    68     3    1
    69   113    60    1
    70    60    31   am
    71    66     1    1
    72    32     2    2
    73    14    86    1
    74    14    13    1
    75    14    85    1
    76    13    12    1
    77    13    83    1
    78    31     3    1
    79    31    50    2
    80     2    51   am
    81     2     1    1
    82     3    51    1
    83     3     4    1
    84    34    12    2
    85    12    53   am
    86    51   106    1
    87     1    65    1
    88     1    67    1
    89    82    11    1
    90   108    53    1
    91    53    11    1
    92    70     4    1
    93    81    11    1
    94    11    10    1
    95     4    69    1
    96     4     5    1
    97    71     5    1
    98     5    72    1
    99     5     6    1
   100    10    79    1
   101    10    61    1
   102    10    80    1
   103    61     9    1
   104    74     6    1
   105     6    73    1
   106     6     7    1
   107   107    52    1
   108     9     8    1
   109     9    78    1
   110     9    77    1
   111    52     8   am
   112    52     7    1
   113     8    33    2
   114     7    75    1
   115     7    76    1
@<TRIPOS>MOLECULE
ligand_e79c6d4556_4_run_20.pdb
 113 115 0 0 0
SMALL
GASTEIGER

@<TRIPOS>ATOM
      1    C        6.3600   -9.4300   -2.6980 C.3     2  LIG2        0.0122
      2    C        5.8060   -9.2180   -4.0590 C.2     2  LIG2        0.2105
      3    C        4.9520  -10.2100   -6.2220 C.3     2  LIG2        0.0991
      4    C        6.0790  -10.3270   -7.2420 C.3     2  LIG2       -0.0259
      5    C        6.8930   -9.0430   -7.3410 C.3     2  LIG2       -0.0495
      6    C        7.8240   -9.0550   -8.5500 C.3     2  LIG2       -0.0373
      7    C        7.0500   -8.9380   -9.8570 C.3     2  LIG2        0.0116
      8    C        4.8750   -7.6350   -9.7750 C.2     2  LIG2        0.2229
      9    C        4.1790   -6.3200   -9.8570 C.3     2  LIG2        0.0702
     10    C        2.7770   -6.6230  -12.0670 C.3     2  LIG2        0.0097
     11    C        2.9050   -7.0430  -13.5180 C.3     2  LIG2        0.0206
     12    C        0.5140   -6.9200  -14.3010 C.2     2  LIG2        0.2145
     13    C       -0.7370   -7.6290  -14.6920 C.3     2  LIG2        0.0395
     14    C       -1.8410   -6.6390  -15.0260 C.3     2  LIG2        0.0199
     15    C       -2.4350   -5.0280  -16.8700 C.2     2  LIG2        0.2423
     16    C       -2.1790   -4.4780  -18.2400 C.3     2  LIG2        0.1380
     17    C       -2.6660   -5.3820  -19.3980 C.3     2  LIG2        0.0234
     18    C       -1.9880   -6.7450  -19.3660 C.3     2  LIG2       -0.0549
     19    C       -2.3660   -4.7340  -20.7390 C.3     2  LIG2       -0.0549
     20    C       -4.1840   -5.5570  -19.3280 C.3     2  LIG2        0.0628
     21    C       -6.7770   -2.5760  -18.9660 C.3     2  LIG2        0.0837
     22    C       -6.6980   -1.5570  -17.8400 C.3     2  LIG2        0.1141
     23    C       -5.3560    0.1490  -17.2030 C.3     2  LIG2        0.1665
     24    C       -6.7270    0.7580  -17.4380 C.3     2  LIG2        0.1294
     25    C       -7.4390   -0.3060  -18.2270 C.3     2  LIG2        0.1285
     26    C       -3.3240    1.6450  -17.4640 C.ar    2  LIG2        0.0999
     27    C       -3.1580    1.7640  -19.5770 C.ar    2  LIG2        0.1287
     28    C       -2.8250    2.0040  -20.9020 C.3     2  LIG2        0.2004
     29    C       -4.6770    0.6430  -21.5430 C.2     2  LIG2        0.1049
     30    C       -4.2200    0.9860  -19.2800 C.ar    2  LIG2        0.1528
     31    C        3.9280  -11.2650   -6.4760 C.2     2  LIG2        0.2308
     32    O        5.6240   -8.0460   -4.4830 O.2     2  LIG2       -0.2761
     33    O        4.2020   -8.6900   -9.6280 O.2     2  LIG2       -0.2749
     34    O        0.5480   -5.6590  -14.2990 O.2     2  LIG2       -0.2758
     35    O       -3.3700   -4.5450  -16.1790 O.2     2  LIG2       -0.2730
     36    O       -2.7090   -3.1880  -18.3370 O.3     2  LIG2       -0.3820
     37    O       -4.6860   -6.2190  -20.4550 O.3     2  LIG2       -0.3266
     38    O       -6.9910   -5.9150  -18.9880 O.3     2  LIG2       -0.4371
     39    O       -7.0480   -6.7340  -21.4710 O.2     2  LIG2       -0.5170
     40    O       -6.4430   -4.1730  -21.0720 O.3     2  LIG2       -0.2703
     41    O       -9.0330   -5.0080  -20.6620 O.3     2  LIG2       -0.4371
     42    O       -8.5300   -2.8120  -21.9790 O.2     2  LIG2       -0.5170
     43    O       -8.1020   -2.7440  -19.3750 O.3     2  LIG2       -0.3246
     44    O       -5.3600   -1.2080  -17.5930 O.3     2  LIG2       -0.3456
     45    O       -7.3450    0.9680  -16.2020 O.3     2  LIG2       -0.3846
     46    O       -8.7960   -0.3980  -17.8890 O.3     2  LIG2       -0.2748
     47    O      -11.2040    0.7080  -18.6690 O.3     2  LIG2       -0.1145
     48    O       -9.2310    2.3390  -17.6530 O.3     2  LIG2       -0.1145
     49    O       -8.9970    1.1750  -19.9870 O.2     2  LIG2       -0.2224
     50    O        3.8110  -12.2240   -5.6710 O.2     2  LIG2       -0.2740
     51    N        5.4750  -10.3460   -4.8690 N.am    2  LIG2       -0.3042
     52    N        6.2990   -7.6910   -9.9050 N.am    2  LIG2       -0.3146
     53    N        1.6740   -7.6780  -13.9610 N.am    2  LIG2       -0.3145
     54    N       -1.6310   -6.0910  -16.3560 N.am    2  LIG2       -0.3127
     55    N       -4.3440    0.8910  -17.9530 N.ar    2  LIG2       -0.2877
     56    N       -2.5640    2.2010  -18.4510 N.ar    2  LIG2       -0.2346
     57    N       -1.7110    2.8160  -21.2540 N.3     2  LIG2       -0.2985
     58    N       -3.6020    1.4310  -21.8690 N.2     2  LIG2       -0.2420
     59    N       -4.9980    0.4130  -20.2320 N.pl3   2  LIG2       -0.1840
     60    N        3.0800  -11.1920   -7.6180 N.am    2  LIG2       -0.3278
     61    S        4.2470   -5.6820  -11.5560 S.3     2  LIG2       -0.1499
     62    P       -6.3240   -5.7860  -20.5370 P.3     2  LIG2        0.2181
     63    P       -8.0410   -3.6450  -20.8130 P.3     2  LIG2        0.2182
     64    P       -9.5340    0.9620  -18.5890 P.3     2  LIG2        0.5323
     65    H        6.4470  -10.4790   -2.5070 H       2  LIG2        0.0322
     66    H        5.7070   -8.9890   -1.9740 H       2  LIG2        0.0322
     67    H        7.3260   -8.9750   -2.6310 H       2  LIG2        0.0322
     68    H        4.5000   -9.2450   -6.3200 H       2  LIG2        0.0594
     69    H        5.6560  -10.5430   -8.2010 H       2  LIG2        0.0288
     70    H        6.7340  -11.1110   -6.9230 H       2  LIG2        0.0288
     71    H        7.4800   -8.9350   -6.4530 H       2  LIG2        0.0266
     72    H        6.2130   -8.2250   -7.4540 H       2  LIG2        0.0266
     73    H        8.3760   -9.9710   -8.5540 H       2  LIG2        0.0280
     74    H        8.4810   -8.2130   -8.4750 H       2  LIG2        0.0280
     75    H        6.3700   -9.7610   -9.9360 H       2  LIG2        0.0462
     76    H        7.7460   -8.9500  -10.6690 H       2  LIG2        0.0462
     77    H        4.6560   -5.6250   -9.1980 H       2  LIG2        0.0471
     78    H        3.1550   -6.4480   -9.5720 H       2  LIG2        0.0471
     79    H        1.9070   -6.0110  -11.9510 H       2  LIG2        0.0392
     80    H        2.6910   -7.4970  -11.4560 H       2  LIG2        0.0392
     81    H        3.7160   -7.7330  -13.6180 H       2  LIG2        0.0470
     82    H        3.0900   -6.1770  -14.1200 H       2  LIG2        0.0470
     83    H       -1.0560   -8.2490  -13.8810 H       2  LIG2        0.0374
     84    H       -0.5360   -8.2210  -15.5600 H       2  LIG2        0.0374
     85    H       -1.8340   -5.8440  -14.3090 H       2  LIG2        0.0467
     86    H       -2.7850   -7.1420  -14.9980 H       2  LIG2        0.0467
     87    H       -1.1170   -4.4420  -18.3600 H       2  LIG2        0.0696
     88    H       -0.9270   -6.6170  -19.4150 H       2  LIG2        0.0237
     89    H       -2.3160   -7.3270  -20.2020 H       2  LIG2        0.0237
     90    H       -2.2450   -7.2500  -18.4580 H       2  LIG2        0.0237
     91    H       -1.3110   -4.5890  -20.8370 H       2  LIG2        0.0237
     92    H       -2.8630   -3.7870  -20.7960 H       2  LIG2        0.0237
     93    H       -2.7140   -5.3670  -21.5270 H       2  LIG2        0.0237
     94    H       -4.6410   -4.5920  -19.2620 H       2  LIG2        0.0570
     95    H       -4.4100   -6.1500  -18.4670 H       2  LIG2        0.0570
     96    H       -6.1920   -2.2330  -19.7940 H       2  LIG2        0.0591
     97    H       -6.3990   -3.5130  -18.6150 H       2  LIG2        0.0591
     98    H       -7.1320   -1.9930  -16.9650 H       2  LIG2        0.0647
     99    H       -5.1190    0.2080  -16.1610 H       2  LIG2        0.0866
    100    H       -6.7150    1.7010  -17.9440 H       2  LIG2        0.0666
    101    H       -7.4380   -0.1100  -19.2790 H       2  LIG2        0.0656
    102    H       -3.1430    1.7810  -16.4570 H       2  LIG2        0.1030
    103    H       -5.2490    0.2210  -22.2910 H       2  LIG2        0.1015
    104    H       -3.5940   -3.1710  -17.9390 H       2  LIG2        0.2105
    105    H       -8.2170    1.3690  -16.3400 H       2  LIG2        0.2101
    106    H        5.6040  -11.2490   -4.4990 H       2  LIG2        0.1494
    107    H        6.7920   -6.8490  -10.0330 H       2  LIG2        0.1487
    108    H        1.6400   -8.6600  -14.0270 H       2  LIG2        0.1487
    109    H       -0.9140   -6.4630  -16.9180 H       2  LIG2        0.1488
    110    H       -1.1570    3.2240  -20.5490 H       2  LIG2        0.1209
    111    H       -1.4930    2.9700  -22.2020 H       2  LIG2        0.1209
    112    H        3.1690  -10.4430   -8.2500 H       2  LIG2        0.1450
    113    H        2.4060  -11.8920   -7.7760 H       2  LIG2        0.1450
@<TRIPOS>BOND
     1   103    29    1
     2   111    57    1
     3    42    63    2
     4    58    29    2
     5    58    28    1
     6    29    59    1
     7    93    19    1
     8    39    62    2
     9    57    28    1
    10    57   110    1
    11    40    63    1
    12    40    62    1
    13    28    27    1
    14    91    19    1
    15    63    41    1
    16    63    43    1
    17    92    19    1
    18    19    17    1
    19    62    37    1
    20    62    38    1
    21    37    20    1
    22    59    30    1
    23    89    18    1
    24    49    64    2
    25    96    21    1
    26    27    30   ar
    27    27    56   ar
    28    88    18    1
    29    17    18    1
    30    17    20    1
    31    17    16    1
    32    43    21    1
    33    18    90    1
    34    20    94    1
    35    20    95    1
    36    30    55   ar
    37   101    25    1
    38    21    97    1
    39    21    22    1
    40    47    64    1
    41    64    46    1
    42    64    48    1
    43    56    26   ar
    44    87    16    1
    45    36    16    1
    46    36   104    1
    47    16    15    1
    48    25    46    1
    49    25    22    1
    50    25    24    1
    51    55    26   ar
    52    55    23    1
    53   100    24    1
    54    22    44    1
    55    22    98    1
    56    44    23    1
    57    26   102    1
    58    24    23    1
    59    24    45    1
    60    23    99    1
    61   109    54    1
    62    15    54   am
    63    15    35    2
    64    54    14    1
    65   105    45    1
    66    84    13    1
    67    14    86    1
    68    14    13    1
    69    14    85    1
    70    13    12    1
    71    13    83    1
    72    12    34    2
    73    12    53   am
    74    82    11    1
    75   108    53    1
    76    53    11    1
    77    81    11    1
    78    11    10    1
    79    10    79    1
    80    10    61    1
    81    10    80    1
    82    61     9    1
    83    76     7    1
    84   107    52    1
    85    75     7    1
    86    52     7    1
    87    52     8   am
    88     9     8    1
    89     9    78    1
    90     9    77    1
    91     7     6    1
    92     8    33    2
    93    73     6    1
    94     6    74    1
    95     6     5    1
    96   112    60    1
    97    69     4    1
    98   113    60    1
    99    60    31   am
   100    72     5    1
   101     5     4    1
   102     5    71    1
   103     4    70    1
   104     4     3    1
   105    31     3    1
   106    31    50    2
   107    68     3    1
   108     3    51    1
   109    51   106    1
   110    51     2   am
   111    32     2    2
   112     2     1    1
   113     1    67    1
   114     1    65    1
   115     1    66    1
