@<TRIPOS>MOLECULE
ligand_e79c6d4556_1_run_14.pdb
 59 59 0 0 0
SMALL
GASTEIGER

@<TRIPOS>ATOM
      1    C        2.0270   -2.7520  -22.6460 C.3     2  LIG2       -0.0587
      2    C        2.6090   -3.4740  -21.4040 C.3     2  LIG2       -0.0225
      3    C        4.1200   -3.4890  -21.5120 C.2     2  LIG2       -0.0848
      4    C        4.9270   -2.7200  -20.7760 C.2     2  LIG2       -0.0873
      5    C        4.4370   -1.7460  -19.7260 C.3     2  LIG2       -0.0286
      6    C        2.8980   -1.5200  -19.7550 C.3     2  LIG2        0.0001
      7    C        2.4350   -0.8170  -18.4510 C.3     2  LIG2        0.0958
      8    O        3.2770    0.3270  -18.2070 O.3     2  LIG2       -0.4640
      9    C        3.2280    0.9470  -16.9890 C.2     2  LIG2        0.3125
     10    O        2.5190    0.5740  -16.0660 O.2     2  LIG2       -0.2503
     11    C        4.1760    2.1650  -16.9230 C.3     2  LIG2        0.0594
     12    C        4.1610    2.7840  -15.4990 C.3     2  LIG2       -0.0499
     13    C        5.6240    1.7180  -17.2560 C.3     2  LIG2       -0.0499
     14    C        3.7130    3.2390  -17.9400 C.3     2  LIG2       -0.0499
     15    C        2.1510   -2.8670  -20.0340 C.3     2  LIG2       -0.0288
     16    C        0.6000   -2.7550  -19.8930 C.3     2  LIG2       -0.0470
     17    C       -0.1600   -4.1020  -20.0170 C.3     2  LIG2       -0.0265
     18    C       -1.6890   -3.9460  -19.8280 C.3     2  LIG2        0.0576
     19    O       -2.2130   -3.1240  -20.8710 O.3     2  LIG2       -0.3917
     20    C       -2.3970   -5.3260  -19.8050 C.3     2  LIG2       -0.0002
     21    C       -3.9320   -5.2540  -19.5860 C.3     2  LIG2        0.0678
     22    O       -4.5680   -4.5590  -20.6600 O.3     2  LIG2       -0.3912
     23    C       -4.5510   -6.6670  -19.4560 C.3     2  LIG2        0.0752
     24    C       -6.0130   -6.6280  -19.0040 C.2     2  LIG2        0.3585
     25    O       -6.8280   -5.8110  -19.3950 O.co2   2  LIG2       -0.2463
     26    O       -6.3030   -7.4800  -18.0000 O.co2   2  LIG2       -0.2463
     27    H        2.3870   -3.2250  -23.5350 H       2  LIG2        0.0235
     28    H        2.3330   -1.7260  -22.6380 H       2  LIG2        0.0235
     29    H        0.9580   -2.8050  -22.6210 H       2  LIG2        0.0235
     30    H        2.2200   -4.4700  -21.4060 H       2  LIG2        0.0343
     31    H        4.5520   -4.1330  -22.1940 H       2  LIG2        0.0572
     32    H        5.9450   -2.7940  -20.9330 H       2  LIG2        0.0569
     33    H        4.9200   -0.8050  -19.8860 H       2  LIG2        0.0311
     34    H        4.6740   -2.1680  -18.7720 H       2  LIG2        0.0311
     35    H        2.6440   -0.8640  -20.5620 H       2  LIG2        0.0339
     36    H        2.5110   -1.4990  -17.6300 H       2  LIG2        0.0700
     37    H        1.4190   -0.5000  -18.5540 H       2  LIG2        0.0700
     38    H        3.1660    3.0970  -15.2580 H       2  LIG2        0.0240
     39    H        4.8170    3.6290  -15.4700 H       2  LIG2        0.0240
     40    H        4.4870    2.0540  -14.7890 H       2  LIG2        0.0240
     41    H        5.6480    1.2890  -18.2370 H       2  LIG2        0.0240
     42    H        5.9460    0.9900  -16.5410 H       2  LIG2        0.0240
     43    H        6.2760    2.5650  -17.2220 H       2  LIG2        0.0240
     44    H        2.7150    3.5450  -17.7060 H       2  LIG2        0.0240
     45    H        3.7380    2.8290  -18.9280 H       2  LIG2        0.0240
     46    H        4.3660    4.0850  -17.8880 H       2  LIG2        0.0240
     47    H        2.4330   -3.5580  -19.2670 H       2  LIG2        0.0310
     48    H        0.2410   -2.0990  -20.6590 H       2  LIG2        0.0269
     49    H        0.4080   -2.3870  -18.9070 H       2  LIG2        0.0269
     50    H        0.2100   -4.7730  -19.2710 H       2  LIG2        0.0290
     51    H        0.0060   -4.4770  -21.0050 H       2  LIG2        0.0290
     52    H       -1.8740   -3.4780  -18.8830 H       2  LIG2        0.0594
     53    H       -3.1800   -3.1940  -20.8830 H       2  LIG2        0.2098
     54    H       -2.2150   -5.8120  -20.7400 H       2  LIG2        0.0315
     55    H       -1.9950   -5.8630  -18.9710 H       2  LIG2        0.0315
     56    H       -4.0950   -4.7200  -18.6730 H       2  LIG2        0.0599
     57    H       -5.5280   -4.5610  -20.5220 H       2  LIG2        0.2098
     58    H       -4.4990   -7.1530  -20.4080 H       2  LIG2        0.0404
     59    H       -3.9950   -7.1980  -18.7120 H       2  LIG2        0.0404
@<TRIPOS>BOND
     1    27     1    1
     2     1    28    1
     3     1    29    1
     4     1     2    1
     5    31     3    1
     6     3     2    1
     7     3     4    2
     8    30     2    1
     9     2    15    1
    10    51    17    1
    11    32     4    1
    12    53    19    1
    13    19    18    1
    14     4     5    1
    15    54    20    1
    16    22    57    1
    17    22    21    1
    18    48    16    1
    19    35     6    1
    20    58    23    1
    21    15    16    1
    22    15     6    1
    23    15    47    1
    24    17    16    1
    25    17    18    1
    26    17    50    1
    27    16    49    1
    28    33     5    1
    29    18    20    1
    30    18    52    1
    31    20    21    1
    32    20    55    1
    33     6     5    1
    34     6     7    1
    35     5    34    1
    36    21    23    1
    37    21    56    1
    38    23    24    1
    39    23    59    1
    40    25    24   ar
    41    24    26   ar
    42    45    14    1
    43    37     7    1
    44     7     8    1
    45     7    36    1
    46    41    13    1
    47     8     9    1
    48    14    46    1
    49    14    44    1
    50    14    11    1
    51    13    43    1
    52    13    11    1
    53    13    42    1
    54     9    11    1
    55     9    10    2
    56    11    12    1
    57    12    39    1
    58    12    38    1
    59    12    40    1
@<TRIPOS>MOLECULE
ligand_e79c6d4556_1_run_5.pdb
 59 59 0 0 0
SMALL
GASTEIGER

@<TRIPOS>ATOM
      1    C       -3.0580   -1.6300  -18.8280 C.3     2  LIG2       -0.0587
      2    C       -2.5490   -2.7580  -19.7610 C.3     2  LIG2       -0.0225
      3    C       -1.0730   -2.9770  -19.5030 C.2     2  LIG2       -0.0848
      4    C       -0.5800   -4.0320  -18.8470 C.2     2  LIG2       -0.0873
      5    C       -1.4320   -5.1540  -18.2940 C.3     2  LIG2       -0.0286
      6    C       -2.9580   -4.8500  -18.3190 C.3     2  LIG2        0.0001
      7    C       -3.7670   -6.1530  -18.0870 C.3     2  LIG2        0.0958
      8    O       -3.6420   -6.9990  -19.2460 O.3     2  LIG2       -0.4640
      9    C       -4.5770   -7.9720  -19.4690 C.2     2  LIG2        0.3125
     10    O       -5.5360   -8.1720  -18.7390 O.2     2  LIG2       -0.2503
     11    C       -4.2760   -8.7780  -20.7530 C.3     2  LIG2        0.0594
     12    C       -4.2450   -7.8360  -21.9860 C.3     2  LIG2       -0.0499
     13    C       -2.8950   -9.4730  -20.6210 C.3     2  LIG2       -0.0499
     14    C       -5.3800   -9.8450  -20.9680 C.3     2  LIG2       -0.0499
     15    C       -3.3460   -4.1020  -19.6390 C.3     2  LIG2       -0.0288
     16    C       -4.8870   -3.9280  -19.8210 C.3     2  LIG2       -0.0470
     17    C       -5.3230   -3.3540  -21.1950 C.3     2  LIG2       -0.0265
     18    C       -6.8570   -3.1940  -21.3170 C.3     2  LIG2        0.0576
     19    O       -7.4870   -4.4430  -21.0300 O.3     2  LIG2       -0.3917
     20    C       -7.3850   -2.0800  -20.3740 C.3     2  LIG2       -0.0002
     21    C       -8.9170   -1.8440  -20.4570 C.3     2  LIG2        0.0678
     22    O       -9.6340   -3.0350  -20.1310 O.3     2  LIG2       -0.3912
     23    C       -9.3640   -0.7040  -19.5110 C.3     2  LIG2        0.0752
     24    C      -10.8440   -0.3500  -19.6770 C.2     2  LIG2        0.3585
     25    O      -11.5230   -0.6840  -20.6310 O.co2   2  LIG2       -0.2463
     26    O      -11.3130    0.5120  -18.7520 O.co2   2  LIG2       -0.2463
     27    H       -2.4640   -0.7520  -18.9730 H       2  LIG2        0.0235
     28    H       -2.9820   -1.9490  -17.8090 H       2  LIG2        0.0235
     29    H       -4.0800   -1.4110  -19.0570 H       2  LIG2        0.0235
     30    H       -2.7130   -2.4330  -20.7680 H       2  LIG2        0.0343
     31    H       -0.4080   -2.2700  -19.8550 H       2  LIG2        0.0572
     32    H        0.4420   -4.0840  -18.7100 H       2  LIG2        0.0569
     33    H       -1.1390   -5.3320  -17.2800 H       2  LIG2        0.0311
     34    H       -1.2720   -6.0070  -18.9190 H       2  LIG2        0.0311
     35    H       -3.2080   -4.1880  -17.5160 H       2  LIG2        0.0339
     36    H       -4.7980   -5.9110  -17.9310 H       2  LIG2        0.0700
     37    H       -3.3900   -6.6630  -17.2260 H       2  LIG2        0.0700
     38    H       -5.1930   -7.3500  -22.0880 H       2  LIG2        0.0240
     39    H       -4.0410   -8.4070  -22.8670 H       2  LIG2        0.0240
     40    H       -3.4790   -7.1000  -21.8530 H       2  LIG2        0.0240
     41    H       -2.9040  -10.1270  -19.7740 H       2  LIG2        0.0240
     42    H       -2.1340   -8.7330  -20.4930 H       2  LIG2        0.0240
     43    H       -2.6950  -10.0400  -21.5070 H       2  LIG2        0.0240
     44    H       -6.3300   -9.3610  -21.0580 H       2  LIG2        0.0240
     45    H       -5.3980  -10.5120  -20.1320 H       2  LIG2        0.0240
     46    H       -5.1750  -10.3970  -21.8610 H       2  LIG2        0.0240
     47    H       -3.0540   -4.7240  -20.4600 H       2  LIG2        0.0310
     48    H       -5.2410   -3.2650  -19.0600 H       2  LIG2        0.0269
     49    H       -5.3150   -4.9060  -19.7540 H       2  LIG2        0.0269
     50    H       -4.9850   -4.0160  -21.9650 H       2  LIG2        0.0290
     51    H       -4.8880   -2.3810  -21.2900 H       2  LIG2        0.0290
     52    H       -7.0950   -2.9010  -22.3180 H       2  LIG2        0.0594
     53    H       -8.4450   -4.3120  -20.9540 H       2  LIG2        0.2098
     54    H       -7.1420   -2.3510  -19.3670 H       2  LIG2        0.0315
     55    H       -6.9170   -1.1690  -20.6840 H       2  LIG2        0.0315
     56    H       -9.1370   -1.5630  -21.4660 H       2  LIG2        0.0599
     57    H      -10.5860   -2.8750  -20.2250 H       2  LIG2        0.2098
     58    H       -9.1970   -1.0120  -18.5000 H       2  LIG2        0.0404
     59    H       -8.7920    0.1660  -19.7570 H       2  LIG2        0.0404
@<TRIPOS>BOND
     1    39    12    1
     2    52    18    1
     3    38    12    1
     4    12    40    1
     5    12    11    1
     6    50    17    1
     7    46    14    1
     8    43    13    1
     9    56    21    1
    10    18    17    1
    11    18    19    1
    12    18    20    1
    13    51    17    1
    14    17    16    1
    15    44    14    1
    16    19    53    1
    17    14    11    1
    18    14    45    1
    19    30     2    1
    20    11    13    1
    21    11     9    1
    22    55    20    1
    23    25    24   ar
    24    13    42    1
    25    13    41    1
    26    47    15    1
    27    21    20    1
    28    21    22    1
    29    21    23    1
    30    20    54    1
    31    57    22    1
    32    31     3    1
    33    16    49    1
    34    16    15    1
    35    16    48    1
    36     2    15    1
    37     2     3    1
    38     2     1    1
    39    59    23    1
    40    24    23    1
    41    24    26   ar
    42    15     6    1
    43    23    58    1
    44     3     4    2
    45     9     8    1
    46     9    10    2
    47     8     7    1
    48    29     1    1
    49    27     1    1
    50    34     5    1
    51     4    32    1
    52     4     5    1
    53     1    28    1
    54     6     5    1
    55     6     7    1
    56     6    35    1
    57     5    33    1
    58     7    36    1
    59     7    37    1
@<TRIPOS>MOLECULE
ligand_e79c6d4556_1_run_19.pdb
 59 59 0 0 0
SMALL
GASTEIGER

@<TRIPOS>ATOM
      1    C       -5.1800   -3.9490  -22.8640 C.3     2  LIG2       -0.0587
      2    C       -5.3180   -4.5940  -21.4610 C.3     2  LIG2       -0.0225
      3    C       -5.6200   -6.0700  -21.6290 C.2     2  LIG2       -0.0848
      4    C       -4.7330   -7.0420  -21.3990 C.2     2  LIG2       -0.0873
      5    C       -3.3170   -6.7960  -20.9210 C.3     2  LIG2       -0.0286
      6    C       -2.8930   -5.3000  -20.9720 C.3     2  LIG2        0.0001
      7    C       -1.5990   -5.0820  -20.1440 C.3     2  LIG2        0.0958
      8    O       -1.8760   -5.3510  -18.7560 O.3     2  LIG2       -0.4640
      9    C       -0.8700   -5.2270  -17.8360 C.2     2  LIG2        0.3125
     10    O        0.2770   -4.9200  -18.1230 O.2     2  LIG2       -0.2503
     11    C       -1.3630   -5.5180  -16.4010 C.3     2  LIG2        0.0594
     12    C       -1.9750   -6.9420  -16.3190 C.3     2  LIG2       -0.0499
     13    C       -0.1710   -5.4300  -15.4120 C.3     2  LIG2       -0.0499
     14    C       -2.4480   -4.4840  -16.0060 C.3     2  LIG2       -0.0499
     15    C       -4.0780   -4.3780  -20.5290 C.3     2  LIG2       -0.0288
     16    C       -3.6710   -2.8780  -20.3760 C.3     2  LIG2       -0.0470
     17    C       -4.7360   -1.8630  -19.8820 C.3     2  LIG2       -0.0265
     18    C       -5.1490   -2.0980  -18.4090 C.3     2  LIG2        0.0576
     19    O       -4.0070   -1.9370  -17.5670 O.3     2  LIG2       -0.3917
     20    C       -6.2890   -1.1360  -17.9830 C.3     2  LIG2       -0.0002
     21    C       -7.6490   -1.4080  -18.6780 C.3     2  LIG2        0.0678
     22    O       -8.0420   -2.7710  -18.5140 O.3     2  LIG2       -0.3912
     23    C       -8.7620   -0.4870  -18.1220 C.3     2  LIG2        0.0752
     24    C      -10.0520   -0.5630  -18.9430 C.2     2  LIG2        0.3585
     25    O      -10.1600   -1.1760  -19.9900 O.co2   2  LIG2       -0.2463
     26    O      -11.0360    0.2450  -18.5000 O.co2   2  LIG2       -0.2463
     27    H       -6.0640   -4.1430  -23.4340 H       2  LIG2        0.0235
     28    H       -4.3320   -4.3670  -23.3660 H       2  LIG2        0.0235
     29    H       -5.0470   -2.8930  -22.7590 H       2  LIG2        0.0235
     30    H       -6.1250   -4.0980  -20.9640 H       2  LIG2        0.0343
     31    H       -6.5660   -6.3400  -21.9410 H       2  LIG2        0.0572
     32    H       -5.0300   -8.0180  -21.5560 H       2  LIG2        0.0569
     33    H       -2.6490   -7.3580  -21.5390 H       2  LIG2        0.0311
     34    H       -3.2760   -7.0990  -19.8960 H       2  LIG2        0.0311
     35    H       -2.6600   -5.0240  -21.9800 H       2  LIG2        0.0339
     36    H       -1.2690   -4.0700  -20.2540 H       2  LIG2        0.0700
     37    H       -0.8330   -5.7420  -20.4920 H       2  LIG2        0.0700
     38    H       -2.8000   -7.0150  -16.9970 H       2  LIG2        0.0240
     39    H       -2.3160   -7.1270  -15.3210 H       2  LIG2        0.0240
     40    H       -1.2320   -7.6650  -16.5810 H       2  LIG2        0.0240
     41    H        0.2600   -4.4510  -15.4590 H       2  LIG2        0.0240
     42    H        0.5670   -6.1580  -15.6770 H       2  LIG2        0.0240
     43    H       -0.5170   -5.6190  -14.4170 H       2  LIG2        0.0240
     44    H       -3.2680   -4.5480  -16.6900 H       2  LIG2        0.0240
     45    H       -2.0310   -3.4990  -16.0400 H       2  LIG2        0.0240
     46    H       -2.7940   -4.6910  -15.0140 H       2  LIG2        0.0240
     47    H       -4.3640   -4.6730  -19.5410 H       2  LIG2        0.0310
     48    H       -3.2410   -2.5520  -21.3000 H       2  LIG2        0.0269
     49    H       -2.9850   -2.8290  -19.5570 H       2  LIG2        0.0269
     50    H       -5.6050   -1.9520  -20.5000 H       2  LIG2        0.0290
     51    H       -4.3040   -0.8860  -19.9450 H       2  LIG2        0.0290
     52    H       -5.5220   -3.0960  -18.3100 H       2  LIG2        0.0594
     53    H       -4.2700   -2.0510  -16.6400 H       2  LIG2        0.2098
     54    H       -6.4280   -1.2290  -16.9260 H       2  LIG2        0.0315
     55    H       -5.9860   -0.1530  -18.2770 H       2  LIG2        0.0315
     56    H       -7.5170   -1.2010  -19.7200 H       2  LIG2        0.0599
     57    H       -8.8580   -2.9350  -19.0110 H       2  LIG2        0.2098
     58    H       -8.9780   -0.7790  -17.1160 H       2  LIG2        0.0404
     59    H       -8.4040    0.5200  -18.1710 H       2  LIG2        0.0404
@<TRIPOS>BOND
     1    27     1    1
     2    28     1    1
     3     1    29    1
     4     1     2    1
     5    35     6    1
     6    31     3    1
     7     3     2    1
     8     3     4    2
     9    32     4    1
    10    33     5    1
    11     2    30    1
    12     2    15    1
    13     4     5    1
    14    48    16    1
    15     6     5    1
    16     6    15    1
    17     6     7    1
    18     5    34    1
    19    15    16    1
    20    15    47    1
    21    50    17    1
    22    37     7    1
    23    16    17    1
    24    16    49    1
    25    36     7    1
    26     7     8    1
    27    25    24   ar
    28    51    17    1
    29    17    18    1
    30    56    21    1
    31    57    22    1
    32    24    26   ar
    33    24    23    1
    34     8     9    1
    35    21    22    1
    36    21    23    1
    37    21    20    1
    38    18    52    1
    39    18    20    1
    40    18    19    1
    41    55    20    1
    42    59    23    1
    43    10     9    2
    44    23    58    1
    45    20    54    1
    46     9    11    1
    47    19    53    1
    48    38    12    1
    49    44    14    1
    50    40    12    1
    51    11    12    1
    52    11    14    1
    53    11    13    1
    54    12    39    1
    55    45    14    1
    56    14    46    1
    57    42    13    1
    58    41    13    1
    59    13    43    1
