@<TRIPOS>MOLECULE
ligand_e79c6d4556_2_run_14.pdb
 100 101 0 0 0
SMALL
GASTEIGER

@<TRIPOS>ATOM
      1    C       -1.9350   -3.9650  -18.3280 C.3     2  LIG2       -0.0549
      2    C       -2.3030   -5.1540  -17.3970 C.3     2  LIG2        0.0234
      3    C       -2.3050   -4.6370  -15.9290 C.3     2  LIG2       -0.0549
      4    C       -3.7170   -5.6890  -17.7690 C.3     2  LIG2        0.0628
      5    O       -4.5190   -4.6280  -18.3160 O.3     2  LIG2       -0.3266
      6    P       -6.0060   -4.9360  -18.8570 P.3     2  LIG2        0.2181
      7    O       -6.0760   -5.8160  -20.0510 O.2     2  LIG2       -0.5170
      8    O       -6.7380   -5.4430  -17.5170 O.3     2  LIG2       -0.4371
      9    O       -6.5970   -3.4500  -19.0260 O.3     2  LIG2       -0.2703
     10    P       -6.9390   -2.4380  -17.8250 P.3     2  LIG2        0.2182
     11    O       -8.1370   -2.7780  -17.0190 O.3     2  LIG2       -0.4371
     12    O       -5.5390   -2.3980  -17.0360 O.2     2  LIG2       -0.5170
     13    O       -6.9610   -1.0090  -18.5850 O.3     2  LIG2       -0.3246
     14    C       -7.1150    0.2420  -17.8850 C.3     2  LIG2        0.0837
     15    C       -7.4960    1.4060  -18.8380 C.3     2  LIG2        0.1141
     16    O       -6.6820    1.3070  -20.0290 O.3     2  LIG2       -0.3456
     17    C       -7.3850    0.6740  -21.1210 C.3     2  LIG2        0.1665
     18    N       -6.6450   -0.5080  -21.5780 N.ar    2  LIG2       -0.2894
     19    C       -7.0440   -1.5400  -22.4150 C.ar    2  LIG2        0.0994
     20    N       -6.1130   -2.5370  -22.6370 N.ar    2  LIG2       -0.2420
     21    C       -5.0940   -2.0670  -21.8710 C.ar    2  LIG2        0.0677
     22    C       -3.8330   -2.6600  -21.6780 C.3     2  LIG2        0.0456
     23    N       -3.4580   -3.8540  -22.2730 N.4     2  LIG2        0.3952
     24    N       -2.9200   -2.0670  -20.8800 N.2     2  LIG2       -0.2882
     25    C       -3.2800   -0.9000  -20.2970 C.2     2  LIG2        0.0793
     26    N       -4.4650   -0.2610  -20.4280 N.pl3   2  LIG2       -0.2908
     27    C       -5.3680   -0.8670  -21.2240 C.ar    2  LIG2        0.1254
     28    C       -8.7930    0.3560  -20.5810 C.3     2  LIG2        0.1294
     29    O       -9.8210    0.5400  -21.5590 O.3     2  LIG2       -0.3846
     30    C       -8.9410    1.2800  -19.3640 C.3     2  LIG2        0.1285
     31    O       -9.4180    2.5790  -19.7800 O.3     2  LIG2       -0.2748
     32    P      -10.9060    3.0890  -19.4190 P.3     2  LIG2        0.5323
     33    O      -11.3730    4.3630  -20.0170 O.2     2  LIG2       -0.2224
     34    O      -11.7960    1.8020  -19.7810 O.3     2  LIG2       -0.1145
     35    O      -10.8900    3.0120  -17.8150 O.3     2  LIG2       -0.1145
     36    C       -1.2290   -6.2840  -17.5370 C.3     2  LIG2        0.1380
     37    O        0.0970   -5.7470  -17.5990 O.3     2  LIG2       -0.3820
     38    C       -1.2770   -7.3310  -16.4070 C.2     2  LIG2        0.2423
     39    O       -2.1350   -8.1970  -16.3520 O.2     2  LIG2       -0.2730
     40    N       -0.2660   -7.2340  -15.4650 N.am    2  LIG2       -0.3127
     41    C       -0.1030   -8.1990  -14.3710 C.3     2  LIG2        0.0199
     42    C        0.1800   -7.5070  -13.0230 C.3     2  LIG2        0.0395
     43    C        1.6380   -7.0550  -12.8980 C.2     2  LIG2        0.2145
     44    O        2.3400   -6.8310  -13.8690 O.2     2  LIG2       -0.2758
     45    N        2.0790   -6.8540  -11.6030 N.am    2  LIG2       -0.3145
     46    C        3.3910   -6.2780  -11.2870 C.3     2  LIG2        0.0210
     47    C        4.4280   -7.3670  -10.9660 C.3     2  LIG2        0.0165
     48    S        4.0270   -8.1950   -9.3680 S.3     2  LIG2       -0.0865
     49    C        5.3240   -9.4490   -9.3030 C.2     2  LIG2        0.1921
     50    O        5.6200  -10.1420  -10.2620 O.2     2  LIG2       -0.2851
     51    C        5.9950   -9.5480   -7.9260 C.3     2  LIG2        0.0453
     52    C        5.2820  -10.4700   -6.8930 C.3     2  LIG2        0.0810
     53    C        6.1580  -10.5630   -5.6180 C.3     2  LIG2       -0.0351
     54    O        4.0420   -9.8730   -6.5120 O.3     2  LIG2       -0.3879
     55    C        5.0270  -11.8860   -7.4900 C.3     2  LIG2        0.0781
     56    C        4.4650  -12.8940   -6.4830 C.2     2  LIG2        0.3587
     57    O        3.4140  -12.7500   -5.8870 O.co2   2  LIG2       -0.2463
     58    O        5.1400  -14.0620   -6.4350 O.co2   2  LIG2       -0.2463
     59    H       -1.9280   -4.2980  -19.3450 H       2  LIG2        0.0237
     60    H       -0.9670   -3.5930  -18.0670 H       2  LIG2        0.0237
     61    H       -2.6590   -3.1850  -18.2140 H       2  LIG2        0.0237
     62    H       -1.3320   -4.2710  -15.6780 H       2  LIG2        0.0237
     63    H       -2.5660   -5.4390  -15.2700 H       2  LIG2        0.0237
     64    H       -3.0200   -3.8480  -15.8300 H       2  LIG2        0.0237
     65    H       -4.1910   -6.0750  -16.8910 H       2  LIG2        0.0570
     66    H       -3.6160   -6.4640  -18.5000 H       2  LIG2        0.0570
     67    H       -6.1920    0.4820  -17.4010 H       2  LIG2        0.0591
     68    H       -7.9090    0.1260  -17.1770 H       2  LIG2        0.0591
     69    H       -7.3670    2.3110  -18.2830 H       2  LIG2        0.0647
     70    H       -7.4700    1.2980  -21.9860 H       2  LIG2        0.0866
     71    H       -7.9810   -1.5610  -22.8470 H       2  LIG2        0.1030
     72    H       -4.8020   -2.6520  -22.1320 H       2  LIG2        0.0865
     73    H       -2.5120   -4.0970  -21.9820 H       2  LIG2       -0.0864
     74    H       -3.4860   -3.7510  -23.2880 H       2  LIG2       -0.0864
     75    H       -4.1020   -4.5930  -21.9880 H       2  LIG2       -0.0864
     76    H       -2.5770   -0.4510  -19.6890 H       2  LIG2        0.0996
     77    H       -4.6560    0.5910  -19.9720 H       2  LIG2        0.1544
     78    H       -8.9010   -0.6750  -20.3150 H       2  LIG2        0.0666
     79    H      -10.6410    0.8140  -21.1180 H       2  LIG2        0.2101
     80    H       -9.6330    0.9090  -18.6370 H       2  LIG2        0.0656
     81    H       -1.4750   -6.7770  -18.4540 H       2  LIG2        0.0696
     82    H        0.7070   -6.4290  -17.9220 H       2  LIG2        0.2105
     83    H        0.3700   -6.4850  -15.5330 H       2  LIG2        0.1488
     84    H        0.7140   -8.8490  -14.6030 H       2  LIG2        0.0467
     85    H       -1.0190   -8.7450  -14.2750 H       2  LIG2        0.0467
     86    H       -0.0370   -8.1930  -12.2310 H       2  LIG2        0.0374
     87    H       -0.4400   -6.6370  -12.9640 H       2  LIG2        0.0374
     88    H        1.4860   -7.1080  -10.8590 H       2  LIG2        0.1487
     89    H        3.2920   -5.6330  -10.4400 H       2  LIG2        0.0470
     90    H        3.7320   -5.7360  -12.1450 H       2  LIG2        0.0470
     91    H        5.3980   -6.9200  -10.8960 H       2  LIG2        0.0396
     92    H        4.4130   -8.0990  -11.7460 H       2  LIG2        0.0396
     93    H        6.0420   -8.5620   -7.5110 H       2  LIG2        0.0378
     94    H        6.9540   -9.9900   -8.1000 H       2  LIG2        0.0378
     95    H        6.3210   -9.5820   -5.2240 H       2  LIG2        0.0257
     96    H        7.0990  -11.0100   -5.8630 H       2  LIG2        0.0257
     97    H        5.6590  -11.1620   -4.8850 H       2  LIG2        0.0257
     98    H        3.4910  -10.5320   -6.0610 H       2  LIG2        0.2102
     99    H        5.9550  -12.2660   -7.8650 H       2  LIG2        0.0407
    100    H        4.2900  -11.7710   -8.2570 H       2  LIG2        0.0407
@<TRIPOS>BOND
     1    74    23    1
     2    71    19    1
     3    20    19   ar
     4    20    21   ar
     5    19    18   ar
     6    23    75    1
     7    23    73    1
     8    23    22    1
     9    72    21    1
    10    70    17    1
    11    21    27   ar
    12    22    24    1
    13    18    27   ar
    14    18    17    1
    15    29    79    1
    16    29    28    1
    17    27    26    1
    18    17    28    1
    19    17    16    1
    20    24    25    2
    21    28    78    1
    22    28    30    1
    23    26    25    1
    24    26    77    1
    25    25    76    1
    26     7     6    2
    27    16    15    1
    28    33    32    2
    29    34    32    1
    30    31    32    1
    31    31    30    1
    32    32    35    1
    33    30    15    1
    34    30    80    1
    35    59     1    1
    36     9     6    1
    37     9    10    1
    38     6     5    1
    39     6     8    1
    40    15    69    1
    41    15    14    1
    42    13    14    1
    43    13    10    1
    44    66     4    1
    45    81    36    1
    46     1    61    1
    47     1    60    1
    48     1     2    1
    49     5     4    1
    50    82    37    1
    51    14    67    1
    52    14    68    1
    53    10    12    2
    54    10    11    1
    55     4     2    1
    56     4    65    1
    57    37    36    1
    58    36     2    1
    59    36    38    1
    60     2     3    1
    61    38    39    2
    62    38    40   am
    63     3    64    1
    64     3    62    1
    65     3    63    1
    66    83    40    1
    67    40    41    1
    68    84    41    1
    69    41    85    1
    70    41    42    1
    71    44    43    2
    72    42    87    1
    73    42    43    1
    74    42    86    1
    75    43    45   am
    76    90    46    1
    77    92    47    1
    78    45    46    1
    79    45    88    1
    80    46    47    1
    81    46    89    1
    82    47    91    1
    83    47    48    1
    84    50    49    2
    85    48    49    1
    86    49    51    1
    87   100    55    1
    88    94    51    1
    89    51    93    1
    90    51    52    1
    91    99    55    1
    92    55    52    1
    93    55    56    1
    94    52    54    1
    95    52    53    1
    96    54    98    1
    97    56    58   ar
    98    56    57   ar
    99    96    53    1
   100    53    95    1
   101    53    97    1
@<TRIPOS>MOLECULE
ligand_e79c6d4556_2_run_6.pdb
 100 101 0 0 0
SMALL
GASTEIGER

@<TRIPOS>ATOM
      1    C        3.5490   -5.7510  -12.3690 C.3     2  LIG2       -0.0549
      2    C        3.6670   -7.2920  -12.5350 C.3     2  LIG2        0.0234
      3    C        3.5890   -7.6230  -14.0530 C.3     2  LIG2       -0.0549
      4    C        5.0310   -7.7740  -11.9610 C.3     2  LIG2        0.0628
      5    O        5.4260   -9.0060  -12.5900 O.3     2  LIG2       -0.3266
      6    P        6.9800   -9.4330  -12.6270 P.3     2  LIG2        0.2181
      7    O        7.5850   -9.5030  -13.9810 O.2     2  LIG2       -0.5170
      8    O        7.6230   -8.3960  -11.5790 O.3     2  LIG2       -0.4371
      9    O        6.9530  -10.8000  -11.7800 O.3     2  LIG2       -0.2703
     10    P        6.8420  -12.2790  -12.3980 P.3     2  LIG2        0.2182
     11    O        6.0610  -12.3950  -13.6540 O.2     2  LIG2       -0.5170
     12    O        8.3900  -12.7050  -12.4820 O.3     2  LIG2       -0.4371
     13    O        6.3060  -13.1330  -11.1320 O.3     2  LIG2       -0.3246
     14    C        6.2180  -14.5730  -11.1460 C.3     2  LIG2        0.0837
     15    C        6.1450  -15.1700   -9.7160 C.3     2  LIG2        0.1141
     16    O        7.0570  -14.4380   -8.8660 O.3     2  LIG2       -0.3456
     17    C        6.3830  -13.4310   -8.0800 C.3     2  LIG2        0.1665
     18    N        6.9610  -12.1100   -8.3520 N.ar    2  LIG2       -0.2894
     19    C        8.2440  -11.7660   -8.7530 C.ar    2  LIG2        0.0994
     20    N        8.4910  -10.4140   -8.9020 N.ar    2  LIG2       -0.2420
     21    C        7.2720   -9.9230   -8.5600 C.ar    2  LIG2        0.0677
     22    C        6.8810   -8.5720   -8.5120 C.3     2  LIG2        0.0456
     23    N        7.7350   -7.5260   -8.8250 N.4     2  LIG2        0.3952
     24    N        5.6240   -8.2420   -8.1490 N.2     2  LIG2       -0.2882
     25    C        4.7860   -9.2600   -7.8440 C.2     2  LIG2        0.0793
     26    N        5.0750  -10.5810   -7.8640 N.pl3   2  LIG2       -0.2908
     27    C        6.3350  -10.8950   -8.2240 C.ar    2  LIG2        0.1254
     28    C        4.8910  -13.5460   -8.4480 C.3     2  LIG2        0.1294
     29    O        4.0220  -13.3390   -7.3300 O.3     2  LIG2       -0.3846
     30    C        4.7660  -14.9480   -9.0600 C.3     2  LIG2        0.1285
     31    O        4.5630  -15.9300   -8.0190 O.3     2  LIG2       -0.2748
     32    P        3.1530  -16.6960   -7.8450 P.3     2  LIG2        0.5323
     33    O        2.7190  -17.6160   -8.9250 O.2     2  LIG2       -0.2224
     34    O        3.3200  -17.3770   -6.4000 O.3     2  LIG2       -0.1145
     35    O        2.1670  -15.4770   -7.4990 O.3     2  LIG2       -0.1145
     36    C        2.4770   -7.9940  -11.7990 C.3     2  LIG2        0.1380
     37    O        2.6430   -7.9600  -10.3760 O.3     2  LIG2       -0.3820
     38    C        1.0970   -7.4030  -12.1410 C.2     2  LIG2        0.2423
     39    O        0.5810   -6.5160  -11.4800 O.2     2  LIG2       -0.2730
     40    N        0.4860   -7.9350  -13.2650 N.am    2  LIG2       -0.3127
     41    C       -0.7890   -7.4320  -13.7900 C.3     2  LIG2        0.0199
     42    C       -0.6770   -5.9810  -14.2980 C.3     2  LIG2        0.0395
     43    C       -0.7400   -5.8960  -15.8270 C.2     2  LIG2        0.2145
     44    O        0.2590   -5.8560  -16.5230 O.2     2  LIG2       -0.2758
     45    N       -2.0150   -5.9350  -16.3620 N.am    2  LIG2       -0.3145
     46    C       -2.2720   -6.0170  -17.8040 C.3     2  LIG2        0.0210
     47    C       -2.9970   -4.7640  -18.3250 C.3     2  LIG2        0.0165
     48    S       -4.7730   -4.7910  -17.8350 S.3     2  LIG2       -0.0865
     49    C       -5.3420   -3.2320  -18.5470 C.2     2  LIG2        0.1921
     50    O       -4.5810   -2.4080  -19.0250 O.2     2  LIG2       -0.2851
     51    C       -6.8660   -3.0600  -18.4770 C.3     2  LIG2        0.0453
     52    C       -7.3900   -1.6070  -18.6720 C.3     2  LIG2        0.0810
     53    C       -6.8120   -0.7110  -17.5470 C.3     2  LIG2       -0.0351
     54    O       -6.9000   -1.0960  -19.9130 O.3     2  LIG2       -0.3879
     55    C       -8.9480   -1.5670  -18.6620 C.3     2  LIG2        0.0781
     56    C       -9.5360   -0.1650  -18.8480 C.2     2  LIG2        0.3587
     57    O       -9.0630    0.6820  -19.5830 O.co2   2  LIG2       -0.2463
     58    O      -10.7410    0.0090  -18.2680 O.co2   2  LIG2       -0.2463
     59    H        3.6000   -5.4990  -11.3300 H       2  LIG2        0.0237
     60    H        2.6140   -5.4190  -12.7700 H       2  LIG2        0.0237
     61    H        4.3510   -5.2730  -12.8920 H       2  LIG2        0.0237
     62    H        2.6490   -7.2900  -14.4430 H       2  LIG2        0.0237
     63    H        3.6780   -8.6800  -14.1920 H       2  LIG2        0.0237
     64    H        4.3850   -7.1270  -14.5680 H       2  LIG2        0.0237
     65    H        4.9360   -7.9300  -10.9060 H       2  LIG2        0.0570
     66    H        5.7750   -7.0290  -12.1530 H       2  LIG2        0.0570
     67    H        7.0810  -14.9660  -11.6400 H       2  LIG2        0.0591
     68    H        5.3180  -14.8410  -11.6600 H       2  LIG2        0.0591
     69    H        6.3620  -16.2140   -9.8090 H       2  LIG2        0.0647
     70    H        6.5000  -13.5720   -7.0250 H       2  LIG2        0.0866
     71    H        8.9710  -12.4770   -8.9280 H       2  LIG2        0.1030
     72    H        7.6140   -9.3270   -8.7090 H       2  LIG2        0.0865
     73    H        7.2440   -6.6400   -8.7090 H       2  LIG2       -0.0864
     74    H        8.0460   -7.6190   -9.7920 H       2  LIG2       -0.0864
     75    H        8.5440   -7.5500   -8.2030 H       2  LIG2       -0.0864
     76    H        3.8260   -9.0010   -7.5680 H       2  LIG2        0.0996
     77    H        4.4090  -11.2680   -7.6300 H       2  LIG2        0.1544
     78    H        4.5830  -12.7820   -9.1310 H       2  LIG2        0.0666
     79    H        3.1500  -13.7170   -7.5230 H       2  LIG2        0.2101
     80    H        3.9460  -15.0370   -9.7410 H       2  LIG2        0.0656
     81    H        2.5010   -9.0040  -12.1520 H       2  LIG2        0.0696
     82    H        2.6570   -7.0380  -10.0740 H       2  LIG2        0.2105
     83    H        0.9260   -8.6830  -13.7310 H       2  LIG2        0.1488
     84    H       -1.5220   -7.4690  -13.0110 H       2  LIG2        0.0467
     85    H       -1.0700   -8.0490  -14.6180 H       2  LIG2        0.0467
     86    H        0.2550   -5.5720  -13.9690 H       2  LIG2        0.0374
     87    H       -1.5050   -5.4300  -13.9050 H       2  LIG2        0.0374
     88    H       -2.7840   -5.9060  -15.7480 H       2  LIG2        0.1487
     89    H       -2.8800   -6.8750  -18.0000 H       2  LIG2        0.0470
     90    H       -1.3310   -6.0910  -18.3070 H       2  LIG2        0.0470
     91    H       -2.9270   -4.7360  -19.3930 H       2  LIG2        0.0396
     92    H       -2.5350   -3.8970  -17.9010 H       2  LIG2        0.0396
     93    H       -7.1920   -3.4010  -17.5170 H       2  LIG2        0.0378
     94    H       -7.2620   -3.6260  -19.2950 H       2  LIG2        0.0378
     95    H       -5.7440   -0.7530  -17.5710 H       2  LIG2        0.0257
     96    H       -7.1610   -1.0620  -16.5980 H       2  LIG2        0.0257
     97    H       -7.1340    0.2990  -17.6940 H       2  LIG2        0.0257
     98    H       -7.2720   -0.2140  -20.0690 H       2  LIG2        0.2102
     99    H       -9.2880   -1.9540  -17.7240 H       2  LIG2        0.0407
    100    H       -9.2780   -2.1550  -19.4940 H       2  LIG2        0.0407
@<TRIPOS>BOND
     1    98    54    1
     2    54    52    1
     3    57    56   ar
     4   100    55    1
     5    91    47    1
     6    94    51    1
     7    50    49    2
     8    56    55    1
     9    56    58   ar
    10    52    55    1
    11    52    51    1
    12    52    53    1
    13    55    99    1
    14    49    51    1
    15    49    48    1
    16    51    93    1
    17    47    92    1
    18    47    48    1
    19    47    46    1
    20    90    46    1
    21    89    46    1
    22    46    45    1
    23    97    53    1
    24    95    53    1
    25    53    96    1
    26    44    43    2
    27    45    43   am
    28    45    88    1
    29    43    42    1
    30    85    41    1
    31    64     3    1
    32    62     3    1
    33    42    86    1
    34    42    87    1
    35    42    41    1
    36    63     3    1
    37     3     2    1
    38     7     6    2
    39    41    40    1
    40    41    84    1
    41    83    40    1
    42    11    10    2
    43    40    38   am
    44    61     1    1
    45    60     1    1
    46     6     5    1
    47     6     9    1
    48     6     8    1
    49     5     4    1
    50     2     1    1
    51     2     4    1
    52     2    36    1
    53    12    10    1
    54    10     9    1
    55    10    13    1
    56     1    59    1
    57    66     4    1
    58    81    36    1
    59    38    36    1
    60    38    39    2
    61     4    65    1
    62    36    37    1
    63    68    14    1
    64    67    14    1
    65    14    13    1
    66    14    15    1
    67    37    82    1
    68    69    15    1
    69    74    23    1
    70    80    30    1
    71    15    30    1
    72    15    16    1
    73    78    28    1
    74    30    28    1
    75    30    31    1
    76    71    19    1
    77    33    32    2
    78    20    19   ar
    79    20    21   ar
    80    16    17    1
    81    23    73    1
    82    23    22    1
    83    23    75    1
    84    19    18   ar
    85    72    21    1
    86    21    27   ar
    87    22    24    1
    88    28    17    1
    89    28    29    1
    90    18    27   ar
    91    18    17    1
    92    27    26    1
    93    24    25    2
    94    17    70    1
    95    31    32    1
    96    26    25    1
    97    26    77    1
    98    32    35    1
    99    32    34    1
   100    25    76    1
   101    79    29    1
@<TRIPOS>MOLECULE
ligand_e79c6d4556_2_run_6.pdb
 100 101 0 0 0
SMALL
GASTEIGER

@<TRIPOS>ATOM
      1    C        3.4430   -5.7500  -12.2890 C.3     2  LIG2       -0.0549
      2    C        3.5670   -7.2770  -12.5480 C.3     2  LIG2        0.0234
      3    C        3.5640   -7.5100  -14.0860 C.3     2  LIG2       -0.0549
      4    C        4.9000   -7.8020  -11.9390 C.3     2  LIG2        0.0628
      5    O        5.3260   -8.9890  -12.6290 O.3     2  LIG2       -0.3266
      6    P        6.8920   -9.2300  -12.9320 P.3     2  LIG2        0.2181
      7    O        7.2430   -9.3730  -14.3680 O.2     2  LIG2       -0.5170
      8    O        7.5670   -8.0170  -12.1200 O.3     2  LIG2       -0.4371
      9    O        7.2080  -10.4910  -11.9860 O.3     2  LIG2       -0.2703
     10    P        7.3860  -12.0100  -12.4800 P.3     2  LIG2        0.2182
     11    O        6.3550  -12.5030  -13.4270 O.2     2  LIG2       -0.5170
     12    O        8.8990  -11.9910  -13.0240 O.3     2  LIG2       -0.4371
     13    O        7.5200  -12.8070  -11.0790 O.3     2  LIG2       -0.3246
     14    C        6.4600  -12.8480  -10.1020 C.3     2  LIG2        0.0837
     15    C        6.9520  -13.3590   -8.7220 C.3     2  LIG2        0.1141
     16    O        8.0610  -12.5350   -8.2970 O.3     2  LIG2       -0.3456
     17    C        7.6540  -11.5130   -7.3590 C.3     2  LIG2        0.1665
     18    N        8.0060  -10.1860   -7.8790 N.ar    2  LIG2       -0.2894
     19    C        7.5890   -8.9290   -7.4630 C.ar    2  LIG2        0.0994
     20    N        8.0840   -7.8570   -8.1820 N.ar    2  LIG2       -0.2420
     21    C        8.8400   -8.5260   -9.0910 C.ar    2  LIG2        0.0677
     22    C        9.6130   -7.9700  -10.1270 C.3     2  LIG2        0.0456
     23    N        9.7020   -6.6070  -10.3580 N.4     2  LIG2        0.3952
     24    N       10.3150   -8.7730  -10.9550 N.2     2  LIG2       -0.2882
     25    C       10.2330  -10.1060  -10.7330 C.2     2  LIG2        0.0793
     26    N        9.5180  -10.7230   -9.7640 N.pl3   2  LIG2       -0.2908
     27    C        8.8200   -9.9090   -8.9480 C.ar    2  LIG2        0.1254
     28    C        6.1420  -11.7180   -7.1490 C.3     2  LIG2        0.1294
     29    O        5.7280  -11.4830   -5.8000 O.3     2  LIG2       -0.3846
     30    C        5.8950  -13.1600   -7.6160 C.3     2  LIG2        0.1285
     31    O        6.1490  -14.0840   -6.5340 O.3     2  LIG2       -0.2748
     32    P        4.9440  -14.7570   -5.6970 P.3     2  LIG2        0.5323
     33    O        5.2850  -15.5180   -4.4710 O.3     2  LIG2       -0.1145
     34    O        3.9580  -13.5100   -5.4700 O.3     2  LIG2       -0.1145
     35    O        4.1650  -15.5600   -6.8480 O.2     2  LIG2       -0.2224
     36    C        2.3410   -8.0200  -11.9180 C.3     2  LIG2        0.1380
     37    O        2.4480   -8.1000  -10.4920 O.3     2  LIG2       -0.3820
     38    C        0.9820   -7.3850  -12.2680 C.2     2  LIG2        0.2423
     39    O        0.4600   -6.5290  -11.5730 O.2     2  LIG2       -0.2730
     40    N        0.3990   -7.8420  -13.4380 N.am    2  LIG2       -0.3127
     41    C       -0.8520   -7.2870  -13.9730 C.3     2  LIG2        0.0199
     42    C       -0.6850   -5.8300  -14.4460 C.3     2  LIG2        0.0395
     43    C       -0.8220   -5.6950  -15.9660 C.2     2  LIG2        0.2145
     44    O        0.1420   -5.6120  -16.7060 O.2     2  LIG2       -0.2758
     45    N       -2.1200   -5.7410  -16.4430 N.am    2  LIG2       -0.3145
     46    C       -2.4430   -5.7800  -17.8730 C.3     2  LIG2        0.0210
     47    C       -2.8860   -4.4030  -18.3940 C.3     2  LIG2        0.0165
     48    S       -4.6230   -4.0470  -17.8920 S.3     2  LIG2       -0.0865
     49    C       -4.8400   -2.3930  -18.5810 C.2     2  LIG2        0.1921
     50    O       -4.1380   -1.9530  -19.4760 O.2     2  LIG2       -0.2851
     51    C       -5.9850   -1.6110  -17.9200 C.3     2  LIG2        0.0453
     52    C       -7.4000   -1.8500  -18.5240 C.3     2  LIG2        0.0810
     53    C       -7.3330   -1.6340  -20.0580 C.3     2  LIG2       -0.0351
     54    O       -7.7800   -3.2090  -18.3050 O.3     2  LIG2       -0.3879
     55    C       -8.4510   -0.8970  -17.8800 C.3     2  LIG2        0.0781
     56    C       -9.8710   -1.0740  -18.4290 C.2     2  LIG2        0.3587
     57    O      -10.3160   -2.1270  -18.8440 O.co2   2  LIG2       -0.2463
     58    O      -10.6700   -0.0010  -18.2500 O.co2   2  LIG2       -0.2463
     59    H        3.4430   -5.5650  -11.2340 H       2  LIG2        0.0237
     60    H        2.5290   -5.3890  -12.7130 H       2  LIG2        0.0237
     61    H        4.2700   -5.2430  -12.7390 H       2  LIG2        0.0237
     62    H        2.6460   -7.1480  -14.4990 H       2  LIG2        0.0237
     63    H        3.6580   -8.5570  -14.2880 H       2  LIG2        0.0237
     64    H        4.3850   -6.9860  -14.5270 H       2  LIG2        0.0237
     65    H        4.7510   -8.0290  -10.9030 H       2  LIG2        0.0570
     66    H        5.6530   -7.0480  -12.0420 H       2  LIG2        0.0570
     67    H        5.6900  -13.5010  -10.4570 H       2  LIG2        0.0591
     68    H        6.0960  -11.8500   -9.9720 H       2  LIG2        0.0591
     69    H        7.1880  -14.3950   -8.8460 H       2  LIG2        0.0647
     70    H        8.1560  -11.5820   -6.4170 H       2  LIG2        0.0866
     71    H        6.9470   -8.8020   -6.6650 H       2  LIG2        0.1030
     72    H        8.9640   -7.8600   -9.2840 H       2  LIG2        0.0865
     73    H       10.3040   -6.4370  -11.1640 H       2  LIG2       -0.0864
     74    H       10.0950   -6.1470   -9.5370 H       2  LIG2       -0.0864
     75    H        8.7710   -6.2330  -10.5440 H       2  LIG2       -0.0864
     76    H       10.7720  -10.7140  -11.3690 H       2  LIG2        0.0996
     77    H        9.5090  -11.7030   -9.6620 H       2  LIG2        0.1544
     78    H        5.5570  -11.0130   -7.7030 H       2  LIG2        0.0666
     79    H        4.9860  -12.0680   -5.5830 H       2  LIG2        0.2101
     80    H        4.8910  -13.3290   -7.9450 H       2  LIG2        0.0656
     81    H        2.3700   -8.9990  -12.3490 H       2  LIG2        0.0696
     82    H        2.4520   -7.2060  -10.1170 H       2  LIG2        0.2105
     83    H        0.8410   -8.5700  -13.9330 H       2  LIG2        0.1488
     84    H       -1.5980   -7.3180  -13.2070 H       2  LIG2        0.0467
     85    H       -1.1380   -7.8770  -14.8190 H       2  LIG2        0.0467
     86    H        0.2840   -5.4820  -14.1550 H       2  LIG2        0.0374
     87    H       -1.4610   -5.2470  -13.9940 H       2  LIG2        0.0374
     88    H       -2.8590   -5.7490  -15.7930 H       2  LIG2        0.1487
     89    H       -3.2350   -6.4820  -18.0310 H       2  LIG2        0.0470
     90    H       -1.5620   -6.0710  -18.4060 H       2  LIG2        0.0470
     91    H       -2.8200   -4.3930  -19.4620 H       2  LIG2        0.0396
     92    H       -2.2460   -3.6540  -17.9770 H       2  LIG2        0.0396
     93    H       -5.7630   -0.5680  -18.0040 H       2  LIG2        0.0378
     94    H       -6.0350   -1.9640  -16.9110 H       2  LIG2        0.0378
     95    H       -6.6070   -2.2970  -20.4800 H       2  LIG2        0.0257
     96    H       -7.0540   -0.6220  -20.2640 H       2  LIG2        0.0257
     97    H       -8.2920   -1.8340  -20.4890 H       2  LIG2        0.0257
     98    H       -8.6830   -3.3500  -18.6300 H       2  LIG2        0.2102
     99    H       -8.1450    0.1130  -18.0590 H       2  LIG2        0.0407
    100    H       -8.4900   -1.1370  -16.8380 H       2  LIG2        0.0407
@<TRIPOS>BOND
     1    97    53    1
     2    95    53    1
     3    96    53    1
     4    53    52    1
     5    50    49    2
     6    91    47    1
     7    57    56   ar
     8    98    54    1
     9    49    51    1
    10    49    48    1
    11    52    54    1
    12    52    51    1
    13    52    55    1
    14    56    58   ar
    15    56    55    1
    16    90    46    1
    17    47    92    1
    18    47    48    1
    19    47    46    1
    20    99    55    1
    21    89    46    1
    22    93    51    1
    23    51    94    1
    24    55   100    1
    25    46    45    1
    26    44    43    2
    27    45    43   am
    28    45    88    1
    29    43    42    1
    30    85    41    1
    31    64     3    1
    32    62     3    1
    33    42    86    1
    34    42    87    1
    35    42    41    1
    36     7     6    2
    37    63     3    1
    38     3     2    1
    39    41    40    1
    40    41    84    1
    41    83    40    1
    42    40    38   am
    43    11    10    2
    44    12    10    1
    45     6     5    1
    46     6     8    1
    47     6     9    1
    48    61     1    1
    49    60     1    1
    50     5     4    1
    51     2     1    1
    52     2     4    1
    53     2    36    1
    54    10     9    1
    55    10    13    1
    56    81    36    1
    57     1    59    1
    58    38    36    1
    59    38    39    2
    60    66     4    1
    61     4    65    1
    62    36    37    1
    63    76    25    1
    64    73    23    1
    65    13    14    1
    66    24    25    2
    67    24    22    1
    68    25    26    1
    69    75    23    1
    70    37    82    1
    71    67    14    1
    72    23    22    1
    73    23    74    1
    74    14    68    1
    75    14    15    1
    76    26    77    1
    77    26    27    1
    78    72    21    1
    79    21    27   ar
    80    21    20   ar
    81    27    18   ar
    82    69    15    1
    83    15    16    1
    84    15    30    1
    85    16    17    1
    86    20    19   ar
    87    80    30    1
    88    18    19   ar
    89    18    17    1
    90    78    28    1
    91    30    28    1
    92    30    31    1
    93    19    71    1
    94    17    28    1
    95    17    70    1
    96    28    29    1
    97    35    32    2
    98    31    32    1
    99    29    79    1
   100    32    34    1
   101    32    33    1
