MODEL 1
REMARK VINA RESULT:    -6.699      5.043      9.538
REMARK INTER + INTRA:         -20.811
REMARK INTER:                 -17.419
REMARK INTRA:                  -3.392
REMARK UNBOUND:                -4.127
REMARK  27 active torsions:
REMARK  status: ('A' for Active; 'I' for Inactive)
REMARK    1  A    between atoms: O3A_4  and  P2A_1 
REMARK    2  A    between atoms: O6A_5  and  P2A_1 
REMARK    3  A    between atoms: O3A_4  and  P1A_6 
REMARK    4  A    between atoms: CCP_33  and  O6A_5 
REMARK    5  A    between atoms: O5B_9  and  P1A_6 
REMARK    6  A    between atoms: C5B_10  and  O5B_9 
REMARK    7  A    between atoms: C4B_11  and  C5B_10 
REMARK    8  A    between atoms: C3B_13  and  O3B_14 
REMARK    9  A    between atoms: O3B_14  and  P3B_18 
REMARK   10  A    between atoms: C2B_15  and  O2B_16 
REMARK   11  A    between atoms: C1B_17  and  N9A_22 
REMARK   12  A    between atoms: CAP_36  and  CBP_32 
REMARK   13  A    between atoms: CBP_32  and  CCP_33 
REMARK   14  A    between atoms: C9P_38  and  CAP_36 
REMARK   15  A    between atoms: CAP_36  and  OAP_37 
REMARK       I    between atoms: C9P_38  and  N8P_40 
REMARK   16  A    between atoms: C7P_41  and  N8P_40 
REMARK   17  A    between atoms: C6P_42  and  C7P_41 
REMARK   18  A    between atoms: C5P_43  and  C6P_42 
REMARK       I    between atoms: C5P_43  and  N4P_45 
REMARK   19  A    between atoms: C3P_46  and  N4P_45 
REMARK   20  A    between atoms: C2P_47  and  C3P_46 
REMARK   21  A    between atoms: C2P_47  and  S1P_48 
REMARK   22  A    between atoms: C1_49  and  S1P_48 
REMARK   23  A    between atoms: C1_49  and  C2_51 
REMARK   24  A    between atoms: C2_51  and  C3_52 
REMARK   25  A    between atoms: C3_52  and  O7_53 
REMARK   26  A    between atoms: C3_52  and  C4_54 
REMARK   27  A    between atoms: C4_54  and  C5_55 
ROOT
HETATM    1  P2A HMG A 101      -5.909  -6.112 -19.224  1.00 54.86     0.417 P 
HETATM    2  O5A HMG A 101      -5.651  -7.696 -19.146  1.00 54.86    -0.624 OA
HETATM    3  O4A HMG A 101      -6.872  -5.611 -18.031  1.00 54.86    -0.624 OA
ENDROOT
BRANCH   1   4
HETATM    4  O3A HMG A 101      -6.551  -5.769 -20.670  1.00 54.86    -0.180 OA
BRANCH   4   5
HETATM    5  P1A HMG A 101      -7.309  -4.364 -21.012  1.00 54.86     0.417 P 
HETATM    6  O1A HMG A 101      -8.883  -4.441 -20.594  1.00 54.86    -0.624 OA
HETATM    7  O2A HMG A 101      -7.106  -4.030 -22.591  1.00 54.86    -0.624 OA
BRANCH   5   8
HETATM    8  O5B HMG A 101      -6.675  -3.203 -20.131  1.00 54.86    -0.287 OA
BRANCH   8   9
HETATM    9  C5B HMG A 101      -7.411  -2.020 -19.999  1.00 54.86     0.216 C 
BRANCH   9  10
HETATM   10  C4B HMG A 101      -7.485  -1.674 -18.525  1.00 54.86     0.180 C 
HETATM   11  C3B HMG A 101      -7.588  -0.168 -18.323  1.00 54.86     0.199 C 
HETATM   12  C2B HMG A 101      -6.529   0.158 -17.269  1.00 54.86     0.199 C 
HETATM   13  C1B HMG A 101      -5.568  -1.019 -17.353  1.00 54.86     0.262 C 
HETATM   14  O4B HMG A 101      -6.288  -2.125 -17.892  1.00 54.86    -0.353 OA
BRANCH  11  15
HETATM   15  O3B HMG A 101      -8.935   0.176 -17.956  1.00 54.86    -0.272 OA
BRANCH  15  16
HETATM   16  P3B HMG A 101      -9.648   1.367 -18.758  1.00 54.86     0.422 P 
HETATM   17  O7A HMG A 101      -8.600   1.854 -19.888  1.00 54.86    -0.617 OA
HETATM   18  O8A HMG A 101     -10.998   0.796 -19.452  1.00 54.86    -0.617 OA
HETATM   19  O9A HMG A 101     -10.011   2.581 -17.750  1.00 54.86    -0.617 OA
ENDBRANCH  15  16
ENDBRANCH  11  15
BRANCH  12  20
HETATM   20  O2B HMG A 101      -7.094   0.331 -15.972  1.00 54.86    -0.388 OA
HETATM   21 BHO2 HMG A 101      -6.391   0.372 -15.320  1.00  0.00     0.210 HD
ENDBRANCH  12  20
BRANCH  13  22
HETATM   22  N9A HMG A 101      -4.366  -0.794 -18.198  1.00 54.86    -0.294 N 
HETATM   23  C4A HMG A 101      -3.446   0.232 -18.155  1.00 54.86     0.167 A 
HETATM   24  N3A HMG A 101      -3.302   1.420 -17.310  1.00 54.86    -0.222 NA
HETATM   25  C5A HMG A 101      -2.442  -0.035 -19.181  1.00 54.86     0.149 A 
HETATM   26  C2A HMG A 101      -2.260   2.170 -17.574  1.00 54.86     0.237 A 
HETATM   27  N1A HMG A 101      -1.324   1.975 -18.493  1.00 54.86    -0.222 NA
HETATM   28  C6A HMG A 101      -1.368   0.923 -19.305  1.00 54.86     0.155 A 
HETATM   29  N6A HMG A 101      -0.406   0.769 -20.210  1.00 54.86    -0.382 N 
HETATM   30 1H6A HMG A 101       0.338   1.448 -20.275  1.00  0.00     0.157 HD
HETATM   31 2H6A HMG A 101      -0.421  -0.026 -20.831  1.00  0.00     0.157 HD
HETATM   32  N7A HMG A 101      -2.690  -1.183 -19.904  1.00 54.86    -0.236 NA
HETATM   33  C8A HMG A 101      -3.836  -1.544 -19.241  1.00 54.86     0.214 A 
ENDBRANCH  13  22
ENDBRANCH   9  10
ENDBRANCH   8   9
ENDBRANCH   5   8
ENDBRANCH   4   5
ENDBRANCH   1   4
BRANCH   1  34
HETATM   34  O6A HMG A 101      -4.521  -5.325 -19.128  1.00 54.86    -0.289 OA
BRANCH  34  35
HETATM   35  CCP HMG A 101      -3.944  -4.985 -17.857  1.00 54.86     0.193 C 
BRANCH  35  36
HETATM   36  CBP HMG A 101      -2.433  -5.352 -17.759  1.00 54.86     0.009 C 
HETATM   37  CEP HMG A 101      -1.737  -4.815 -19.052  1.00 54.86     0.020 C 
HETATM   38  CDP HMG A 101      -2.303  -6.901 -17.738  1.00 54.86     0.020 C 
BRANCH  36  39
HETATM   39  CAP HMG A 101      -1.812  -4.716 -16.438  1.00 54.86     0.219 C 
BRANCH  39  40
HETATM   40  C9P HMG A 101      -1.689  -5.702 -15.266  1.00 54.86     0.247 C 
HETATM   41  N8P HMG A 101      -0.467  -6.229 -15.002  1.00 54.86    -0.358 N 
HETATM   42  H8P HMG A 101       0.344  -5.831 -15.455  1.00  0.00     0.162 HD
HETATM   43  O9P HMG A 101      -2.708  -5.957 -14.604  1.00 54.86    -0.271 OA
BRANCH  41  44
HETATM   44  C7P HMG A 101      -0.283  -7.367 -14.070  1.00 54.86     0.132 C 
BRANCH  44  45
HETATM   45  C6P HMG A 101       1.185  -7.475 -13.600  1.00 54.86     0.122 C 
BRANCH  45  46
HETATM   46  C5P HMG A 101       1.348  -7.354 -12.100  1.00 54.86     0.219 C 
HETATM   47  O5P HMG A 101       0.365  -7.068 -11.415  1.00 54.86    -0.274 OA
HETATM   48  N4P HMG A 101       2.587  -7.558 -11.614  1.00 54.86    -0.360 N 
HETATM   49  H4P HMG A 101       3.179  -8.242 -12.064  1.00  0.00     0.162 HD
BRANCH  48  50
HETATM   50  C3P HMG A 101       3.119  -6.816 -10.440  1.00 54.86     0.133 C 
BRANCH  50  51
HETATM   51  C2P HMG A 101       4.619  -7.114 -10.266  1.00 54.86     0.102 C 
BRANCH  51  52
HETATM   52  S1P HMG A 101       5.188  -8.292 -11.547  1.00 54.86    -0.091 SA
BRANCH  52  53
HETATM   53  C1  HMG A 101       5.716  -7.241 -12.955  1.00 54.86     0.188 C 
HETATM   54  O2  HMG A 101       6.610  -6.356 -12.855  1.00 54.86    -0.285 OA
BRANCH  53  55
HETATM   55  C2  HMG A 101       5.018  -7.472 -14.320  1.00 54.86     0.128 C 
BRANCH  55  56
HETATM   56  C3  HMG A 101       5.814  -8.240 -15.413  1.00 54.86     0.071 C 
HETATM   57  C6  HMG A 101       6.703  -9.361 -14.811  1.00 54.86     0.047 C 
BRANCH  56  58
HETATM   58  O7  HMG A 101       4.873  -8.849 -16.307  1.00 54.86    -0.389 OA
HETATM   59  H7  HMG A 101       5.335  -9.180 -17.080  1.00  0.00     0.210 HD
ENDBRANCH  56  58
BRANCH  56  60
HETATM   60  C4  HMG A 101       6.665  -7.201 -16.211  1.00 54.86     0.150 C 
BRANCH  60  61
HETATM   61  C5  HMG A 101       7.726  -7.735 -17.208  1.00 54.86     0.175 C 
HETATM   62  O4  HMG A 101       7.170  -8.250 -18.354  1.00 54.86    -0.648 OA
HETATM   63  O3  HMG A 101       8.933  -7.695 -16.993  1.00 54.86    -0.648 OA
ENDBRANCH  60  61
ENDBRANCH  56  60
ENDBRANCH  55  56
ENDBRANCH  53  55
ENDBRANCH  52  53
ENDBRANCH  51  52
ENDBRANCH  50  51
ENDBRANCH  48  50
ENDBRANCH  45  46
ENDBRANCH  44  45
ENDBRANCH  41  44
ENDBRANCH  39  40
BRANCH  39  64
HETATM   64  OAP HMG A 101      -2.600  -3.581 -16.019  1.00 54.86    -0.385 OA
HETATM   65 PHOA HMG A 101      -2.081  -3.034 -15.424  1.00  0.00     0.210 HD
ENDBRANCH  39  64
ENDBRANCH  36  39
ENDBRANCH  35  36
ENDBRANCH  34  35
ENDBRANCH   1  34
TORSDOF 27
                                                                                                                                                         
ENDMDL
MODEL 2
REMARK VINA RESULT:    -6.569      0.000      0.000
REMARK INTER + INTRA:         -20.987
REMARK INTER:                 -16.860
REMARK INTRA:                  -4.127
REMARK UNBOUND:                -4.127
REMARK  27 active torsions:
REMARK  status: ('A' for Active; 'I' for Inactive)
REMARK    1  A    between atoms: O3A_4  and  P2A_1 
REMARK    2  A    between atoms: O6A_5  and  P2A_1 
REMARK    3  A    between atoms: O3A_4  and  P1A_6 
REMARK    4  A    between atoms: CCP_33  and  O6A_5 
REMARK    5  A    between atoms: O5B_9  and  P1A_6 
REMARK    6  A    between atoms: C5B_10  and  O5B_9 
REMARK    7  A    between atoms: C4B_11  and  C5B_10 
REMARK    8  A    between atoms: C3B_13  and  O3B_14 
REMARK    9  A    between atoms: O3B_14  and  P3B_18 
REMARK   10  A    between atoms: C2B_15  and  O2B_16 
REMARK   11  A    between atoms: C1B_17  and  N9A_22 
REMARK   12  A    between atoms: CAP_36  and  CBP_32 
REMARK   13  A    between atoms: CBP_32  and  CCP_33 
REMARK   14  A    between atoms: C9P_38  and  CAP_36 
REMARK   15  A    between atoms: CAP_36  and  OAP_37 
REMARK       I    between atoms: C9P_38  and  N8P_40 
REMARK   16  A    between atoms: C7P_41  and  N8P_40 
REMARK   17  A    between atoms: C6P_42  and  C7P_41 
REMARK   18  A    between atoms: C5P_43  and  C6P_42 
REMARK       I    between atoms: C5P_43  and  N4P_45 
REMARK   19  A    between atoms: C3P_46  and  N4P_45 
REMARK   20  A    between atoms: C2P_47  and  C3P_46 
REMARK   21  A    between atoms: C2P_47  and  S1P_48 
REMARK   22  A    between atoms: C1_49  and  S1P_48 
REMARK   23  A    between atoms: C1_49  and  C2_51 
REMARK   24  A    between atoms: C2_51  and  C3_52 
REMARK   25  A    between atoms: C3_52  and  O7_53 
REMARK   26  A    between atoms: C3_52  and  C4_54 
REMARK   27  A    between atoms: C4_54  and  C5_55 
ROOT
HETATM    1  P2A HMG A 101      -2.971  -2.990 -21.007  1.00 54.86     0.417 P 
HETATM    2  O5A HMG A 101      -4.462  -3.526 -21.270  1.00 54.86    -0.624 OA
HETATM    3  O4A HMG A 101      -2.310  -2.399 -22.355  1.00 54.86    -0.624 OA
ENDROOT
BRANCH   1   4
HETATM    4  O3A HMG A 101      -2.086  -4.208 -20.413  1.00 54.86    -0.180 OA
BRANCH   4   5
HETATM    5  P1A HMG A 101      -0.580  -4.021 -19.813  1.00 54.86     0.417 P 
HETATM    6  O1A HMG A 101       0.160  -2.740 -20.498  1.00 54.86    -0.624 OA
HETATM    7  O2A HMG A 101       0.249  -5.404 -20.038  1.00 54.86    -0.624 OA
BRANCH   5   8
HETATM    8  O5B HMG A 101      -0.673  -3.698 -18.260  1.00 54.86    -0.287 OA
BRANCH   8   9
HETATM    9  C5B HMG A 101       0.141  -4.439 -17.397  1.00 54.86     0.216 C 
BRANCH   9  10
HETATM   10  C4B HMG A 101      -0.628  -4.676 -16.111  1.00 54.86     0.180 C 
HETATM   11  C3B HMG A 101      -0.383  -6.082 -15.581  1.00 54.86     0.199 C 
HETATM   12  C2B HMG A 101      -1.776  -6.635 -15.281  1.00 54.86     0.199 C 
HETATM   13  C1B HMG A 101      -2.693  -5.776 -16.139  1.00 54.86     0.262 C 
HETATM   14  O4B HMG A 101      -2.022  -4.542 -16.385  1.00 54.86    -0.353 OA
BRANCH  11  15
HETATM   15  O3B HMG A 101       0.502  -6.020 -14.449  1.00 54.86    -0.272 OA
BRANCH  15  16
HETATM   16  P3B HMG A 101       1.155  -7.392 -13.934  1.00 54.86     0.422 P 
HETATM   17  O7A HMG A 101       1.147  -8.407 -15.191  1.00 54.86    -0.617 OA
HETATM   18  O8A HMG A 101       2.677  -7.100 -13.455  1.00 54.86    -0.617 OA
HETATM   19  O9A HMG A 101       0.290  -7.994 -12.704  1.00 54.86    -0.617 OA
ENDBRANCH  15  16
ENDBRANCH  11  15
BRANCH  12  20
HETATM   20  O2B HMG A 101      -2.091  -6.578 -13.891  1.00 54.86    -0.388 OA
HETATM   21 BHO2 HMG A 101      -1.352  -6.920 -13.382  1.00  0.00     0.210 HD
ENDBRANCH  12  20
BRANCH  13  22
HETATM   22  N9A HMG A 101      -3.068  -6.368 -17.450  1.00 54.86    -0.294 N 
HETATM   23  C4A HMG A 101      -4.209  -6.181 -18.200  1.00 54.86     0.167 A 
HETATM   24  N3A HMG A 101      -5.417  -5.373 -18.010  1.00 54.86    -0.222 NA
HETATM   25  C5A HMG A 101      -4.068  -6.970 -19.420  1.00 54.86     0.149 A 
HETATM   26  C2A HMG A 101      -6.298  -5.451 -18.978  1.00 54.86     0.237 A 
HETATM   27  N1A HMG A 101      -6.220  -6.152 -20.101  1.00 54.86    -0.222 NA
HETATM   28  C6A HMG A 101      -5.162  -6.912 -20.363  1.00 54.86     0.155 A 
HETATM   29  N6A HMG A 101      -5.129  -7.596 -21.502  1.00 54.86    -0.382 N 
HETATM   30 1H6A HMG A 101      -5.901  -7.537 -22.149  1.00  0.00     0.157 HD
HETATM   31 2H6A HMG A 101      -4.330  -8.174 -21.720  1.00  0.00     0.157 HD
HETATM   32  N7A HMG A 101      -2.889  -7.681 -19.479  1.00 54.86    -0.236 NA
HETATM   33  C8A HMG A 101      -2.384  -7.251 -18.277  1.00 54.86     0.214 A 
ENDBRANCH  13  22
ENDBRANCH   9  10
ENDBRANCH   8   9
ENDBRANCH   5   8
ENDBRANCH   4   5
ENDBRANCH   1   4
BRANCH   1  34
HETATM   34  O6A HMG A 101      -2.990  -1.838 -19.898  1.00 54.86    -0.289 OA
BRANCH  34  35
HETATM   35  CCP HMG A 101      -3.818  -0.674 -20.047  1.00 54.86     0.193 C 
BRANCH  35  36
HETATM   36  CBP HMG A 101      -3.082   0.647 -19.667  1.00 54.86     0.009 C 
HETATM   37  CEP HMG A 101      -3.175   1.604 -20.901  1.00 54.86     0.020 C 
HETATM   38  CDP HMG A 101      -1.585   0.320 -19.411  1.00 54.86     0.020 C 
BRANCH  36  39
HETATM   39  CAP HMG A 101      -3.754   1.279 -18.369  1.00 54.86     0.219 C 
BRANCH  39  40
HETATM   40  C9P HMG A 101      -3.188   2.653 -17.979  1.00 54.86     0.247 C 
HETATM   41  N8P HMG A 101      -2.222   2.697 -17.027  1.00 54.86    -0.358 N 
HETATM   42  H8P HMG A 101      -1.782   1.835 -16.737  1.00  0.00     0.162 HD
HETATM   43  O9P HMG A 101      -3.626   3.656 -18.565  1.00 54.86    -0.271 OA
BRANCH  41  44
HETATM   44  C7P HMG A 101      -1.790   3.970 -16.400  1.00 54.86     0.132 C 
BRANCH  44  45
HETATM   45  C6P HMG A 101      -0.475   4.485 -17.028  1.00 54.86     0.122 C 
BRANCH  45  46
HETATM   46  C5P HMG A 101       0.560   3.400 -17.234  1.00 54.86     0.219 C 
HETATM   47  O5P HMG A 101       0.825   2.643 -16.298  1.00 54.86    -0.274 OA
HETATM   48  N4P HMG A 101       1.140   3.347 -18.448  1.00 54.86    -0.360 N 
HETATM   49  H4P HMG A 101       0.589   3.585 -19.260  1.00  0.00     0.162 HD
BRANCH  48  50
HETATM   50  C3P HMG A 101       2.561   2.954 -18.640  1.00 54.86     0.133 C 
BRANCH  50  51
HETATM   51  C2P HMG A 101       2.697   1.422 -18.564  1.00 54.86     0.102 C 
BRANCH  51  52
HETATM   52  S1P HMG A 101       4.208   0.961 -17.638  1.00 54.86    -0.091 SA
BRANCH  52  53
HETATM   53  C1  HMG A 101       3.955   1.640 -15.952  1.00 54.86     0.188 C 
HETATM   54  O2  HMG A 101       3.404   0.986 -15.024  1.00 54.86    -0.285 OA
BRANCH  53  55
HETATM   55  C2  HMG A 101       4.450   3.083 -15.681  1.00 54.86     0.128 C 
BRANCH  55  56
HETATM   56  C3  HMG A 101       5.757   3.251 -14.856  1.00 54.86     0.071 C 
HETATM   57  C6  HMG A 101       5.731   4.527 -13.973  1.00 54.86     0.047 C 
BRANCH  56  58
HETATM   58  O7  HMG A 101       5.891   2.115 -13.993  1.00 54.86    -0.389 OA
HETATM   59  H7  HMG A 101       5.788   1.310 -14.505  1.00  0.00     0.210 HD
ENDBRANCH  56  58
BRANCH  56  60
HETATM   60  C4  HMG A 101       6.959   3.269 -15.853  1.00 54.86     0.150 C 
BRANCH  60  61
HETATM   61  C5  HMG A 101       7.824   1.988 -15.979  1.00 54.86     0.175 C 
HETATM   62  O4  HMG A 101       7.700   1.378 -17.203  1.00 54.86    -0.648 OA
HETATM   63  O3  HMG A 101       8.546   1.571 -15.078  1.00 54.86    -0.648 OA
ENDBRANCH  60  61
ENDBRANCH  56  60
ENDBRANCH  55  56
ENDBRANCH  53  55
ENDBRANCH  52  53
ENDBRANCH  51  52
ENDBRANCH  50  51
ENDBRANCH  48  50
ENDBRANCH  45  46
ENDBRANCH  44  45
ENDBRANCH  41  44
ENDBRANCH  39  40
BRANCH  39  64
HETATM   64  OAP HMG A 101      -3.615   0.376 -17.252  1.00 54.86    -0.385 OA
HETATM   65 PHOA HMG A 101      -3.784   0.851 -16.434  1.00  0.00     0.210 HD
ENDBRANCH  39  64
ENDBRANCH  36  39
ENDBRANCH  35  36
ENDBRANCH  34  35
ENDBRANCH   1  34
TORSDOF 27
                                                                                                                                                         
ENDMDL
MODEL 3
REMARK VINA RESULT:    -6.552      5.386      9.608
REMARK INTER + INTRA:         -20.945
REMARK INTER:                 -15.765
REMARK INTRA:                  -5.180
REMARK UNBOUND:                -4.127
REMARK  27 active torsions:
REMARK  status: ('A' for Active; 'I' for Inactive)
REMARK    1  A    between atoms: O3A_4  and  P2A_1 
REMARK    2  A    between atoms: O6A_5  and  P2A_1 
REMARK    3  A    between atoms: O3A_4  and  P1A_6 
REMARK    4  A    between atoms: CCP_33  and  O6A_5 
REMARK    5  A    between atoms: O5B_9  and  P1A_6 
REMARK    6  A    between atoms: C5B_10  and  O5B_9 
REMARK    7  A    between atoms: C4B_11  and  C5B_10 
REMARK    8  A    between atoms: C3B_13  and  O3B_14 
REMARK    9  A    between atoms: O3B_14  and  P3B_18 
REMARK   10  A    between atoms: C2B_15  and  O2B_16 
REMARK   11  A    between atoms: C1B_17  and  N9A_22 
REMARK   12  A    between atoms: CAP_36  and  CBP_32 
REMARK   13  A    between atoms: CBP_32  and  CCP_33 
REMARK   14  A    between atoms: C9P_38  and  CAP_36 
REMARK   15  A    between atoms: CAP_36  and  OAP_37 
REMARK       I    between atoms: C9P_38  and  N8P_40 
REMARK   16  A    between atoms: C7P_41  and  N8P_40 
REMARK   17  A    between atoms: C6P_42  and  C7P_41 
REMARK   18  A    between atoms: C5P_43  and  C6P_42 
REMARK       I    between atoms: C5P_43  and  N4P_45 
REMARK   19  A    between atoms: C3P_46  and  N4P_45 
REMARK   20  A    between atoms: C2P_47  and  C3P_46 
REMARK   21  A    between atoms: C2P_47  and  S1P_48 
REMARK   22  A    between atoms: C1_49  and  S1P_48 
REMARK   23  A    between atoms: C1_49  and  C2_51 
REMARK   24  A    between atoms: C2_51  and  C3_52 
REMARK   25  A    between atoms: C3_52  and  O7_53 
REMARK   26  A    between atoms: C3_52  and  C4_54 
REMARK   27  A    between atoms: C4_54  and  C5_55 
ROOT
HETATM    1  P2A HMG A 101      -7.005  -4.925 -21.500  1.00 54.86     0.417 P 
HETATM    2  O5A HMG A 101      -8.505  -5.159 -22.027  1.00 54.86    -0.624 OA
HETATM    3  O4A HMG A 101      -6.356  -6.292 -20.943  1.00 54.86    -0.624 OA
ENDROOT
BRANCH   1   4
HETATM    4  O3A HMG A 101      -7.039  -3.787 -20.349  1.00 54.86    -0.180 OA
BRANCH   4   5
HETATM    5  P1A HMG A 101      -7.686  -4.020 -18.869  1.00 54.86     0.417 P 
HETATM    6  O1A HMG A 101      -6.873  -5.178 -18.059  1.00 54.86    -0.624 OA
HETATM    7  O2A HMG A 101      -9.264  -4.378 -19.036  1.00 54.86    -0.624 OA
BRANCH   5   8
HETATM    8  O5B HMG A 101      -7.525  -2.689 -18.014  1.00 54.86    -0.287 OA
BRANCH   8   9
HETATM    9  C5B HMG A 101      -8.107  -1.523 -18.522  1.00 54.86     0.216 C 
BRANCH   9  10
HETATM   10  C4B HMG A 101      -8.097  -0.475 -17.426  1.00 54.86     0.180 C 
HETATM   11  C3B HMG A 101      -8.175   0.928 -18.012  1.00 54.86     0.199 C 
HETATM   12  C2B HMG A 101      -7.057   1.705 -17.317  1.00 54.86     0.199 C 
HETATM   13  C1B HMG A 101      -6.113   0.615 -16.833  1.00 54.86     0.262 C 
HETATM   14  O4B HMG A 101      -6.870  -0.586 -16.704  1.00 54.86    -0.353 OA
BRANCH  11  15
HETATM   15  O3B HMG A 101      -9.497   1.458 -17.812  1.00 54.86    -0.272 OA
BRANCH  15  16
HETATM   16  P3B HMG A 101     -10.311   1.946 -19.105  1.00 54.86     0.422 P 
HETATM   17  O7A HMG A 101      -9.210   2.307 -20.233  1.00 54.86    -0.617 OA
HETATM   18  O8A HMG A 101     -11.261   0.734 -19.614  1.00 54.86    -0.617 OA
HETATM   19  O9A HMG A 101     -11.209   3.244 -18.743  1.00 54.86    -0.617 OA
ENDBRANCH  15  16
ENDBRANCH  11  15
BRANCH  12  20
HETATM   20  O2B HMG A 101      -7.548   2.531 -16.264  1.00 54.86    -0.388 OA
HETATM   21 BHO2 HMG A 101      -7.682   3.423 -16.593  1.00  0.00     0.210 HD
ENDBRANCH  12  20
BRANCH  13  22
HETATM   22  N9A HMG A 101      -4.957   0.338 -17.727  1.00 54.86    -0.294 N 
HETATM   23  C4A HMG A 101      -4.182  -0.797 -17.828  1.00 54.86     0.167 A 
HETATM   24  N3A HMG A 101      -4.199  -2.092 -17.143  1.00 54.86    -0.222 NA
HETATM   25  C5A HMG A 101      -3.197  -0.564 -18.880  1.00 54.86     0.149 A 
HETATM   26  C2A HMG A 101      -3.284  -2.944 -17.537  1.00 54.86     0.237 A 
HETATM   27  N1A HMG A 101      -2.367  -2.782 -18.481  1.00 54.86    -0.222 NA
HETATM   28  C6A HMG A 101      -2.276  -1.642 -19.160  1.00 54.86     0.155 A 
HETATM   29  N6A HMG A 101      -1.341  -1.526 -20.098  1.00 54.86    -0.382 N 
HETATM   30 1H6A HMG A 101      -0.712  -2.295 -20.281  1.00  0.00     0.157 HD
HETATM   31 2H6A HMG A 101      -1.261  -0.670 -20.627  1.00  0.00     0.157 HD
HETATM   32  N7A HMG A 101      -3.287   0.689 -19.447  1.00 54.86    -0.236 NA
HETATM   33  C8A HMG A 101      -4.351   1.126 -18.697  1.00 54.86     0.214 A 
ENDBRANCH  13  22
ENDBRANCH   9  10
ENDBRANCH   8   9
ENDBRANCH   5   8
ENDBRANCH   4   5
ENDBRANCH   1   4
BRANCH   1  34
HETATM   34  O6A HMG A 101      -6.088  -4.367 -22.685  1.00 54.86    -0.289 OA
BRANCH  34  35
HETATM   35  CCP HMG A 101      -4.893  -5.055 -23.089  1.00 54.86     0.193 C 
BRANCH  35  36
HETATM   36  CBP HMG A 101      -3.592  -4.291 -22.697  1.00 54.86     0.009 C 
HETATM   37  CEP HMG A 101      -3.943  -2.768 -22.646  1.00 54.86     0.020 C 
HETATM   38  CDP HMG A 101      -2.535  -4.515 -23.814  1.00 54.86     0.020 C 
BRANCH  36  39
HETATM   39  CAP HMG A 101      -3.058  -4.829 -21.297  1.00 54.86     0.219 C 
BRANCH  39  40
HETATM   40  C9P HMG A 101      -2.686  -6.320 -21.300  1.00 54.86     0.247 C 
HETATM   41  N8P HMG A 101      -3.627  -7.211 -20.898  1.00 54.86    -0.358 N 
HETATM   42  H8P HMG A 101      -4.580  -6.897 -20.782  1.00  0.00     0.162 HD
HETATM   43  O9P HMG A 101      -1.552  -6.641 -21.689  1.00 54.86    -0.271 OA
BRANCH  41  44
HETATM   44  C7P HMG A 101      -3.301  -8.632 -20.623  1.00 54.86     0.132 C 
BRANCH  44  45
HETATM   45  C6P HMG A 101      -3.271  -8.916 -19.104  1.00 54.86     0.122 C 
BRANCH  45  46
HETATM   46  C5P HMG A 101      -3.086  -7.672 -18.262  1.00 54.86     0.219 C 
HETATM   47  O5P HMG A 101      -4.053  -6.934 -18.068  1.00 54.86    -0.274 OA
HETATM   48  N4P HMG A 101      -1.846  -7.448 -17.787  1.00 54.86    -0.360 N 
HETATM   49  H4P HMG A 101      -1.275  -8.241 -17.528  1.00  0.00     0.162 HD
BRANCH  48  50
HETATM   50  C3P HMG A 101      -1.283  -6.081 -17.630  1.00 54.86     0.133 C 
BRANCH  50  51
HETATM   51  C2P HMG A 101      -0.519  -5.977 -16.298  1.00 54.86     0.102 C 
BRANCH  51  52
HETATM   52  S1P HMG A 101      -0.289  -7.639 -15.564  1.00 54.86    -0.091 SA
BRANCH  52  53
HETATM   53  C1  HMG A 101      -0.712  -7.435 -13.791  1.00 54.86     0.188 C 
HETATM   54  O2  HMG A 101      -1.822  -6.985 -13.397  1.00 54.86    -0.285 OA
BRANCH  53  55
HETATM   55  C2  HMG A 101       0.361  -7.845 -12.749  1.00 54.86     0.128 C 
BRANCH  55  56
HETATM   56  C3  HMG A 101       1.543  -6.864 -12.512  1.00 54.86     0.071 C 
HETATM   57  C6  HMG A 101       2.824  -7.296 -13.275  1.00 54.86     0.047 C 
BRANCH  56  58
HETATM   58  O7  HMG A 101       1.155  -5.570 -12.993  1.00 54.86    -0.389 OA
HETATM   59  H7  HMG A 101       1.544  -4.893 -12.436  1.00  0.00     0.210 HD
ENDBRANCH  56  58
BRANCH  56  60
HETATM   60  C4  HMG A 101       1.796  -6.772 -10.974  1.00 54.86     0.150 C 
BRANCH  60  61
HETATM   61  C5  HMG A 101       2.963  -5.882 -10.475  1.00 54.86     0.175 C 
HETATM   62  O4  HMG A 101       3.029  -4.674 -11.126  1.00 54.86    -0.648 OA
HETATM   63  O3  HMG A 101       3.740  -6.224  -9.588  1.00 54.86    -0.648 OA
ENDBRANCH  60  61
ENDBRANCH  56  60
ENDBRANCH  55  56
ENDBRANCH  53  55
ENDBRANCH  52  53
ENDBRANCH  51  52
ENDBRANCH  50  51
ENDBRANCH  48  50
ENDBRANCH  45  46
ENDBRANCH  44  45
ENDBRANCH  41  44
ENDBRANCH  39  40
BRANCH  39  64
HETATM   64  OAP HMG A 101      -4.040  -4.589 -20.268  1.00 54.86    -0.385 OA
HETATM   65 PHOA HMG A 101      -4.904  -4.874 -20.578  1.00  0.00     0.210 HD
ENDBRANCH  39  64
ENDBRANCH  36  39
ENDBRANCH  35  36
ENDBRANCH  34  35
ENDBRANCH   1  34
TORSDOF 27
                                                                                                                                                         
ENDMDL

MODEL 4
REMARK VINA RESULT:    -6.521      2.265      3.693
REMARK INTER + INTRA:         -20.544
REMARK INTER:                 -16.634
REMARK INTRA:                  -3.910
REMARK UNBOUND:                -4.127
REMARK  27 active torsions:
REMARK  status: ('A' for Active; 'I' for Inactive)
REMARK    1  A    between atoms: O3A_4  and  P2A_1 
REMARK    2  A    between atoms: O6A_5  and  P2A_1 
REMARK    3  A    between atoms: O3A_4  and  P1A_6 
REMARK    4  A    between atoms: CCP_33  and  O6A_5 
REMARK    5  A    between atoms: O5B_9  and  P1A_6 
REMARK    6  A    between atoms: C5B_10  and  O5B_9 
REMARK    7  A    between atoms: C4B_11  and  C5B_10 
REMARK    8  A    between atoms: C3B_13  and  O3B_14 
REMARK    9  A    between atoms: O3B_14  and  P3B_18 
REMARK   10  A    between atoms: C2B_15  and  O2B_16 
REMARK   11  A    between atoms: C1B_17  and  N9A_22 
REMARK   12  A    between atoms: CAP_36  and  CBP_32 
REMARK   13  A    between atoms: CBP_32  and  CCP_33 
REMARK   14  A    between atoms: C9P_38  and  CAP_36 
REMARK   15  A    between atoms: CAP_36  and  OAP_37 
REMARK       I    between atoms: C9P_38  and  N8P_40 
REMARK   16  A    between atoms: C7P_41  and  N8P_40 
REMARK   17  A    between atoms: C6P_42  and  C7P_41 
REMARK   18  A    between atoms: C5P_43  and  C6P_42 
REMARK       I    between atoms: C5P_43  and  N4P_45 
REMARK   19  A    between atoms: C3P_46  and  N4P_45 
REMARK   20  A    between atoms: C2P_47  and  C3P_46 
REMARK   21  A    between atoms: C2P_47  and  S1P_48 
REMARK   22  A    between atoms: C1_49  and  S1P_48 
REMARK   23  A    between atoms: C1_49  and  C2_51 
REMARK   24  A    between atoms: C2_51  and  C3_52 
REMARK   25  A    between atoms: C3_52  and  O7_53 
REMARK   26  A    between atoms: C3_52  and  C4_54 
REMARK   27  A    between atoms: C4_54  and  C5_55 
ROOT
HETATM    1  P2A HMG A 101      -2.756  -3.058 -21.040  1.00 54.86     0.417 P 
HETATM    2  O5A HMG A 101      -4.093  -3.834 -21.479  1.00 54.86    -0.624 OA
HETATM    3  O4A HMG A 101      -2.211  -2.107 -22.225  1.00 54.86    -0.624 OA
ENDROOT
BRANCH   1   4
HETATM    4  O3A HMG A 101      -1.643  -4.154 -20.617  1.00 54.86    -0.180 OA
BRANCH   4   5
HETATM    5  P1A HMG A 101      -0.266  -3.783 -19.822  1.00 54.86     0.417 P 
HETATM    6  O1A HMG A 101       0.271  -2.306 -20.256  1.00 54.86    -0.624 OA
HETATM    7  O2A HMG A 101       0.834  -4.947 -20.109  1.00 54.86    -0.624 OA
BRANCH   5   8
HETATM    8  O5B HMG A 101      -0.570  -3.702 -18.264  1.00 54.86    -0.287 OA
BRANCH   8   9
HETATM    9  C5B HMG A 101       0.184  -4.522 -17.418  1.00 54.86     0.216 C 
BRANCH   9  10
HETATM   10  C4B HMG A 101      -0.606  -4.733 -16.140  1.00 54.86     0.180 C 
HETATM   11  C3B HMG A 101      -0.396  -6.139 -15.595  1.00 54.86     0.199 C 
HETATM   12  C2B HMG A 101      -1.803  -6.662 -15.309  1.00 54.86     0.199 C 
HETATM   13  C1B HMG A 101      -2.692  -5.793 -16.186  1.00 54.86     0.262 C 
HETATM   14  O4B HMG A 101      -1.994  -4.574 -16.434  1.00 54.86    -0.353 OA
BRANCH  11  15
HETATM   15  O3B HMG A 101       0.475  -6.084 -14.451  1.00 54.86    -0.272 OA
BRANCH  15  16
HETATM   16  P3B HMG A 101       1.066  -7.467 -13.894  1.00 54.86     0.422 P 
HETATM   17  O7A HMG A 101       0.938  -8.540 -15.096  1.00 54.86    -0.617 OA
HETATM   18  O8A HMG A 101       2.623  -7.249 -13.497  1.00 54.86    -0.617 OA
HETATM   19  O9A HMG A 101       0.223  -7.952 -12.599  1.00 54.86    -0.617 OA
ENDBRANCH  15  16
ENDBRANCH  11  15
BRANCH  12  20
HETATM   20  O2B HMG A 101      -2.136  -6.587 -13.924  1.00 54.86    -0.388 OA
HETATM   21 BHO2 HMG A 101      -2.007  -5.688 -13.613  1.00  0.00     0.210 HD
ENDBRANCH  12  20
BRANCH  13  22
HETATM   22  N9A HMG A 101      -3.061  -6.389 -17.497  1.00 54.86    -0.294 N 
HETATM   23  C4A HMG A 101      -4.210  -6.223 -18.241  1.00 54.86     0.167 A 
HETATM   24  N3A HMG A 101      -5.432  -5.440 -18.044  1.00 54.86    -0.222 NA
HETATM   25  C5A HMG A 101      -4.058  -7.006 -19.464  1.00 54.86     0.149 A 
HETATM   26  C2A HMG A 101      -6.316  -5.533 -19.008  1.00 54.86     0.237 A 
HETATM   27  N1A HMG A 101      -6.229  -6.230 -20.133  1.00 54.86    -0.222 NA
HETATM   28  C6A HMG A 101      -5.157  -6.968 -20.402  1.00 54.86     0.155 A 
HETATM   29  N6A HMG A 101      -5.115  -7.648 -21.543  1.00 54.86    -0.382 N 
HETATM   30 1H6A HMG A 101      -5.892  -7.603 -22.186  1.00  0.00     0.157 HD
HETATM   31 2H6A HMG A 101      -4.306  -8.210 -21.765  1.00  0.00     0.157 HD
HETATM   32  N7A HMG A 101      -2.865  -7.693 -19.530  1.00 54.86    -0.236 NA
HETATM   33  C8A HMG A 101      -2.363  -7.255 -18.329  1.00 54.86     0.214 A 
ENDBRANCH  13  22
ENDBRANCH   9  10
ENDBRANCH   8   9
ENDBRANCH   5   8
ENDBRANCH   4   5
ENDBRANCH   1   4
BRANCH   1  34
HETATM   34  O6A HMG A 101      -3.042  -2.157 -19.751  1.00 54.86    -0.289 OA
BRANCH  34  35
HETATM   35  CCP HMG A 101      -4.203  -2.375 -18.933  1.00 54.86     0.193 C 
BRANCH  35  36
HETATM   36  CBP HMG A 101      -5.106  -1.111 -18.811  1.00 54.86     0.009 C 
HETATM   37  CEP HMG A 101      -6.345  -1.331 -19.739  1.00 54.86     0.020 C 
HETATM   38  CDP HMG A 101      -4.309   0.116 -19.337  1.00 54.86     0.020 C 
BRANCH  36  39
HETATM   39  CAP HMG A 101      -5.529  -0.900 -17.290  1.00 54.86     0.219 C 
BRANCH  39  40
HETATM   40  C9P HMG A 101      -6.805  -0.065 -17.107  1.00 54.86     0.247 C 
HETATM   41  N8P HMG A 101      -6.677   1.283 -17.017  1.00 54.86    -0.358 N 
HETATM   42  H8P HMG A 101      -5.790   1.706 -17.248  1.00  0.00     0.162 HD
HETATM   43  O9P HMG A 101      -7.895  -0.659 -17.069  1.00 54.86    -0.271 OA
BRANCH  41  44
HETATM   44  C7P HMG A 101      -7.799   2.155 -16.591  1.00 54.86     0.132 C 
BRANCH  44  45
HETATM   45  C6P HMG A 101      -7.760   3.515 -17.324  1.00 54.86     0.122 C 
BRANCH  45  46
HETATM   46  C5P HMG A 101      -6.788   3.547 -18.484  1.00 54.86     0.219 C 
HETATM   47  O5P HMG A 101      -7.071   2.937 -19.516  1.00 54.86    -0.274 OA
HETATM   48  N4P HMG A 101      -5.652   4.244 -18.294  1.00 54.86    -0.360 N 
HETATM   49  H4P HMG A 101      -5.683   5.079 -17.727  1.00  0.00     0.162 HD
BRANCH  48  50
HETATM   50  C3P HMG A 101      -4.351   3.832 -18.886  1.00 54.86     0.133 C 
BRANCH  50  51
HETATM   51  C2P HMG A 101      -3.202   4.613 -18.224  1.00 54.86     0.102 C 
BRANCH  51  52
HETATM   52  S1P HMG A 101      -1.635   3.675 -18.356  1.00 54.86    -0.091 SA
BRANCH  52  53
HETATM   53  C1  HMG A 101      -0.917   3.715 -16.668  1.00 54.86     0.188 C 
HETATM   54  O2  HMG A 101      -1.403   3.070 -15.698  1.00 54.86    -0.285 OA
BRANCH  53  55
HETATM   55  C2  HMG A 101       0.347   4.586 -16.450  1.00 54.86     0.128 C 
BRANCH  55  56
HETATM   56  C3  HMG A 101       1.708   4.010 -16.930  1.00 54.86     0.071 C 
HETATM   57  C6  HMG A 101       2.071   4.481 -18.364  1.00 54.86     0.047 C 
BRANCH  56  58
HETATM   58  O7  HMG A 101       2.731   4.472 -16.037  1.00 54.86    -0.389 OA
HETATM   59  H7  HMG A 101       3.391   4.959 -16.533  1.00  0.00     0.210 HD
ENDBRANCH  56  58
BRANCH  56  60
HETATM   60  C4  HMG A 101       1.633   2.452 -16.842  1.00 54.86     0.150 C 
BRANCH  60  61
HETATM   61  C5  HMG A 101       2.865   1.689 -16.290  1.00 54.86     0.175 C 
HETATM   62  O4  HMG A 101       4.015   1.952 -16.994  1.00 54.86    -0.648 OA
HETATM   63  O3  HMG A 101       2.813   0.935 -15.323  1.00 54.86    -0.648 OA
ENDBRANCH  60  61
ENDBRANCH  56  60
ENDBRANCH  55  56
ENDBRANCH  53  55
ENDBRANCH  52  53
ENDBRANCH  51  52
ENDBRANCH  50  51
ENDBRANCH  48  50
ENDBRANCH  45  46
ENDBRANCH  44  45
ENDBRANCH  41  44
ENDBRANCH  39  40
BRANCH  39  64
HETATM   64  OAP HMG A 101      -4.450  -0.281 -16.559  1.00 54.86    -0.385 OA
HETATM   65 PHOA HMG A 101      -3.965  -0.953 -16.073  1.00  0.00     0.210 HD
ENDBRANCH  39  64
ENDBRANCH  36  39
ENDBRANCH  35  36
ENDBRANCH  34  35
ENDBRANCH   1  34
TORSDOF 27
                                                                                                                                                         
ENDMDL
MODEL 5
REMARK VINA RESULT:    -6.515      6.485     11.091
REMARK INTER + INTRA:         -20.478
REMARK INTER:                 -15.827
REMARK INTRA:                  -4.651
REMARK UNBOUND:                -4.127
REMARK  27 active torsions:
REMARK  status: ('A' for Active; 'I' for Inactive)
REMARK    1  A    between atoms: O3A_4  and  P2A_1 
REMARK    2  A    between atoms: O6A_5  and  P2A_1 
REMARK    3  A    between atoms: O3A_4  and  P1A_6 
REMARK    4  A    between atoms: CCP_33  and  O6A_5 
REMARK    5  A    between atoms: O5B_9  and  P1A_6 
REMARK    6  A    between atoms: C5B_10  and  O5B_9 
REMARK    7  A    between atoms: C4B_11  and  C5B_10 
REMARK    8  A    between atoms: C3B_13  and  O3B_14 
REMARK    9  A    between atoms: O3B_14  and  P3B_18 
REMARK   10  A    between atoms: C2B_15  and  O2B_16 
REMARK   11  A    between atoms: C1B_17  and  N9A_22 
REMARK   12  A    between atoms: CAP_36  and  CBP_32 
REMARK   13  A    between atoms: CBP_32  and  CCP_33 
REMARK   14  A    between atoms: C9P_38  and  CAP_36 
REMARK   15  A    between atoms: CAP_36  and  OAP_37 
REMARK       I    between atoms: C9P_38  and  N8P_40 
REMARK   16  A    between atoms: C7P_41  and  N8P_40 
REMARK   17  A    between atoms: C6P_42  and  C7P_41 
REMARK   18  A    between atoms: C5P_43  and  C6P_42 
REMARK       I    between atoms: C5P_43  and  N4P_45 
REMARK   19  A    between atoms: C3P_46  and  N4P_45 
REMARK   20  A    between atoms: C2P_47  and  C3P_46 
REMARK   21  A    between atoms: C2P_47  and  S1P_48 
REMARK   22  A    between atoms: C1_49  and  S1P_48 
REMARK   23  A    between atoms: C1_49  and  C2_51 
REMARK   24  A    between atoms: C2_51  and  C3_52 
REMARK   25  A    between atoms: C3_52  and  O7_53 
REMARK   26  A    between atoms: C3_52  and  C4_54 
REMARK   27  A    between atoms: C4_54  and  C5_55 
ROOT
HETATM    1  P2A HMG A 101       0.616  -7.281 -13.851  1.00 54.86     0.417 P 
HETATM    2  O5A HMG A 101       0.593  -8.593 -14.778  1.00 54.86    -0.624 OA
HETATM    3  O4A HMG A 101      -0.341  -7.451 -12.563  1.00 54.86    -0.624 OA
ENDROOT
BRANCH   1   4
HETATM    4  O3A HMG A 101       0.163  -6.013 -14.748  1.00 54.86    -0.180 OA
BRANCH   4   5
HETATM    5  P1A HMG A 101      -1.298  -5.892 -15.467  1.00 54.86     0.417 P 
HETATM    6  O1A HMG A 101      -2.485  -6.336 -14.442  1.00 54.86    -0.624 OA
HETATM    7  O2A HMG A 101      -1.290  -6.788 -16.825  1.00 54.86    -0.624 OA
BRANCH   5   8
HETATM    8  O5B HMG A 101      -1.576  -4.369 -15.829  1.00 54.86    -0.287 OA
BRANCH   8   9
HETATM    9  C5B HMG A 101      -2.875  -4.027 -16.217  1.00 54.86     0.216 C 
BRANCH   9  10
HETATM   10  C4B HMG A 101      -2.784  -3.180 -17.473  1.00 54.86     0.180 C 
HETATM   11  C3B HMG A 101      -4.171  -2.811 -17.983  1.00 54.86     0.199 C 
HETATM   12  C2B HMG A 101      -4.142  -3.149 -19.474  1.00 54.86     0.199 C 
HETATM   13  C1B HMG A 101      -3.005  -4.154 -19.589  1.00 54.86     0.262 C 
HETATM   14  O4B HMG A 101      -2.127  -3.941 -18.486  1.00 54.86    -0.353 OA
BRANCH  11  15
HETATM   15  O3B HMG A 101      -4.442  -1.432 -17.679  1.00 54.86    -0.272 OA
BRANCH  15  16
HETATM   16  P3B HMG A 101      -5.967  -0.940 -17.734  1.00 54.86     0.422 P 
HETATM   17  O7A HMG A 101      -6.163  -0.202 -19.158  1.00 54.86    -0.617 OA
HETATM   18  O8A HMG A 101      -6.939  -2.235 -17.633  1.00 54.86    -0.617 OA
HETATM   19  O9A HMG A 101      -6.269   0.079 -16.512  1.00 54.86    -0.617 OA
ENDBRANCH  15  16
ENDBRANCH  11  15
BRANCH  12  20
HETATM   20  O2B HMG A 101      -3.953  -1.993 -20.286  1.00 54.86    -0.388 OA
HETATM   21 BHO2 HMG A 101      -3.423  -2.223 -21.052  1.00  0.00     0.210 HD
ENDBRANCH  12  20
BRANCH  13  22
HETATM   22  N9A HMG A 101      -3.421  -5.581 -19.579  1.00 54.86    -0.294 N 
HETATM   23  C4A HMG A 101      -3.048  -6.607 -20.421  1.00 54.86     0.167 A 
HETATM   24  N3A HMG A 101      -2.150  -6.685 -21.576  1.00 54.86    -0.222 NA
HETATM   25  C5A HMG A 101      -3.719  -7.820 -19.961  1.00 54.86     0.149 A 
HETATM   26  C2A HMG A 101      -2.042  -7.873 -22.120  1.00 54.86     0.237 A 
HETATM   27  N1A HMG A 101      -2.629  -9.001 -21.745  1.00 54.86    -0.222 NA
HETATM   28  C6A HMG A 101      -3.459  -9.030 -20.707  1.00 54.86     0.155 A 
HETATM   29  N6A HMG A 101      -4.024 -10.185 -20.368  1.00 54.86    -0.382 N 
HETATM   30 1H6A HMG A 101      -3.823 -11.019 -20.900  1.00  0.00     0.157 HD
HETATM   31 2H6A HMG A 101      -4.652 -10.226 -19.579  1.00  0.00     0.157 HD
HETATM   32  N7A HMG A 101      -4.533  -7.614 -18.868  1.00 54.86    -0.236 NA
HETATM   33  C8A HMG A 101      -4.278  -6.272 -18.731  1.00 54.86     0.214 A 
ENDBRANCH  13  22
ENDBRANCH   9  10
ENDBRANCH   8   9
ENDBRANCH   5   8
ENDBRANCH   4   5
ENDBRANCH   1   4
BRANCH   1  34
HETATM   34  O6A HMG A 101       2.106  -6.992 -13.347  1.00 54.86    -0.289 OA
BRANCH  34  35
HETATM   35  CCP HMG A 101       2.409  -5.844 -12.538  1.00 54.86     0.193 C 
BRANCH  35  36
HETATM   36  CBP HMG A 101       3.638  -6.067 -11.605  1.00 54.86     0.009 C 
HETATM   37  CEP HMG A 101       4.331  -4.679 -11.409  1.00 54.86     0.020 C 
HETATM   38  CDP HMG A 101       4.636  -7.018 -12.324  1.00 54.86     0.020 C 
BRANCH  36  39
HETATM   39  CAP HMG A 101       3.154  -6.694 -10.224  1.00 54.86     0.219 C 
BRANCH  39  40
HETATM   40  C9P HMG A 101       4.124  -7.728  -9.633  1.00 54.86     0.247 C 
HETATM   41  N8P HMG A 101       5.142  -7.277  -8.858  1.00 54.86    -0.358 N 
HETATM   42  H8P HMG A 101       5.131  -6.316  -8.549  1.00  0.00     0.162 HD
HETATM   43  O9P HMG A 101       3.921  -8.929  -9.875  1.00 54.86    -0.271 OA
BRANCH  41  44
HETATM   44  C7P HMG A 101       6.269  -8.150  -8.450  1.00 54.86     0.132 C 
BRANCH  44  45
HETATM   45  C6P HMG A 101       5.990  -8.826  -7.088  1.00 54.86     0.122 C 
BRANCH  45  46
HETATM   46  C5P HMG A 101       5.825 -10.327  -7.184  1.00 54.86     0.219 C 
HETATM   47  O5P HMG A 101       5.755 -10.987  -6.146  1.00 54.86    -0.274 OA
HETATM   48  N4P HMG A 101       5.779 -10.847  -8.425  1.00 54.86    -0.360 N 
HETATM   49  H4P HMG A 101       5.340 -10.311  -9.160  1.00  0.00     0.162 HD
BRANCH  48  50
HETATM   50  C3P HMG A 101       6.352 -12.179  -8.757  1.00 54.86     0.133 C 
BRANCH  50  51
HETATM   51  C2P HMG A 101       7.887 -12.088  -8.829  1.00 54.86     0.102 C 
BRANCH  51  52
HETATM   52  S1P HMG A 101       8.519 -13.085 -10.228  1.00 54.86    -0.091 SA
BRANCH  52  53
HETATM   53  C1  HMG A 101       7.788 -12.317 -11.725  1.00 54.86     0.188 C 
HETATM   54  O2  HMG A 101       6.888 -12.874 -12.413  1.00 54.86    -0.285 OA
BRANCH  53  55
HETATM   55  C2  HMG A 101       8.315 -10.920 -12.142  1.00 54.86     0.128 C 
BRANCH  55  56
HETATM   56  C3  HMG A 101       7.275  -9.774 -12.288  1.00 54.86     0.071 C 
HETATM   57  C6  HMG A 101       6.788  -9.609 -13.753  1.00 54.86     0.047 C 
BRANCH  56  58
HETATM   58  O7  HMG A 101       6.138 -10.094 -11.475  1.00 54.86    -0.389 OA
HETATM   59  H7  HMG A 101       6.436 -10.402 -10.617  1.00  0.00     0.210 HD
ENDBRANCH  56  58
BRANCH  56  60
HETATM   60  C4  HMG A 101       7.923  -8.460 -11.749  1.00 54.86     0.150 C 
BRANCH  60  61
HETATM   61  C5  HMG A 101       8.537  -7.472 -12.774  1.00 54.86     0.175 C 
HETATM   62  O4  HMG A 101       9.767  -7.875 -13.233  1.00 54.86    -0.648 OA
HETATM   63  O3  HMG A 101       7.977  -6.442 -13.135  1.00 54.86    -0.648 OA
ENDBRANCH  60  61
ENDBRANCH  56  60
ENDBRANCH  55  56
ENDBRANCH  53  55
ENDBRANCH  52  53
ENDBRANCH  51  52
ENDBRANCH  50  51
ENDBRANCH  48  50
ENDBRANCH  45  46
ENDBRANCH  44  45
ENDBRANCH  41  44
ENDBRANCH  39  40
BRANCH  39  64
HETATM   64  OAP HMG A 101       1.856  -7.302 -10.385  1.00 54.86    -0.385 OA
HETATM   65 PHOA HMG A 101       1.253  -6.670 -10.786  1.00  0.00     0.210 HD
ENDBRANCH  39  64
ENDBRANCH  36  39
ENDBRANCH  35  36
ENDBRANCH  34  35
ENDBRANCH   1  34
TORSDOF 27
                                                                                                                                                         
ENDMDL
MODEL 6
REMARK VINA RESULT:    -6.509      7.117     10.872
REMARK INTER + INTRA:         -20.340
REMARK INTER:                 -17.944
REMARK INTRA:                  -2.395
REMARK UNBOUND:                -4.127
REMARK  27 active torsions:
REMARK  status: ('A' for Active; 'I' for Inactive)
REMARK    1  A    between atoms: O3A_4  and  P2A_1 
REMARK    2  A    between atoms: O6A_5  and  P2A_1 
REMARK    3  A    between atoms: O3A_4  and  P1A_6 
REMARK    4  A    between atoms: CCP_33  and  O6A_5 
REMARK    5  A    between atoms: O5B_9  and  P1A_6 
REMARK    6  A    between atoms: C5B_10  and  O5B_9 
REMARK    7  A    between atoms: C4B_11  and  C5B_10 
REMARK    8  A    between atoms: C3B_13  and  O3B_14 
REMARK    9  A    between atoms: O3B_14  and  P3B_18 
REMARK   10  A    between atoms: C2B_15  and  O2B_16 
REMARK   11  A    between atoms: C1B_17  and  N9A_22 
REMARK   12  A    between atoms: CAP_36  and  CBP_32 
REMARK   13  A    between atoms: CBP_32  and  CCP_33 
REMARK   14  A    between atoms: C9P_38  and  CAP_36 
REMARK   15  A    between atoms: CAP_36  and  OAP_37 
REMARK       I    between atoms: C9P_38  and  N8P_40 
REMARK   16  A    between atoms: C7P_41  and  N8P_40 
REMARK   17  A    between atoms: C6P_42  and  C7P_41 
REMARK   18  A    between atoms: C5P_43  and  C6P_42 
REMARK       I    between atoms: C5P_43  and  N4P_45 
REMARK   19  A    between atoms: C3P_46  and  N4P_45 
REMARK   20  A    between atoms: C2P_47  and  C3P_46 
REMARK   21  A    between atoms: C2P_47  and  S1P_48 
REMARK   22  A    between atoms: C1_49  and  S1P_48 
REMARK   23  A    between atoms: C1_49  and  C2_51 
REMARK   24  A    between atoms: C2_51  and  C3_52 
REMARK   25  A    between atoms: C3_52  and  O7_53 
REMARK   26  A    between atoms: C3_52  and  C4_54 
REMARK   27  A    between atoms: C4_54  and  C5_55 
ROOT
HETATM    1  P2A HMG A 101       0.413  -7.384 -14.178  1.00 54.86     0.417 P 
HETATM    2  O5A HMG A 101       0.646  -8.845 -14.805  1.00 54.86    -0.624 OA
HETATM    3  O4A HMG A 101      -0.500  -7.452 -12.849  1.00 54.86    -0.624 OA
ENDROOT
BRANCH   1   4
HETATM    4  O3A HMG A 101      -0.273  -6.448 -15.306  1.00 54.86    -0.180 OA
BRANCH   4   5
HETATM    5  P1A HMG A 101      -1.861  -6.500 -15.680  1.00 54.86     0.417 P 
HETATM    6  O1A HMG A 101      -2.753  -5.798 -14.510  1.00 54.86    -0.624 OA
HETATM    7  O2A HMG A 101      -2.289  -8.049 -15.935  1.00 54.86    -0.624 OA
BRANCH   5   8
HETATM    8  O5B HMG A 101      -2.115  -5.649 -16.998  1.00 54.86    -0.287 OA
BRANCH   8   9
HETATM    9  C5B HMG A 101      -3.346  -4.995 -17.115  1.00 54.86     0.216 C 
BRANCH   9  10
HETATM   10  C4B HMG A 101      -4.074  -5.574 -18.313  1.00 54.86     0.180 C 
HETATM   11  C3B HMG A 101      -3.726  -4.811 -19.584  1.00 54.86     0.199 C 
HETATM   12  C2B HMG A 101      -5.073  -4.505 -20.239  1.00 54.86     0.199 C 
HETATM   13  C1B HMG A 101      -6.061  -4.608 -19.086  1.00 54.86     0.262 C 
HETATM   14  O4B HMG A 101      -5.479  -5.451 -18.093  1.00 54.86    -0.353 OA
BRANCH  11  15
HETATM   15  O3B HMG A 101      -2.827  -5.599 -20.385  1.00 54.86    -0.272 OA
BRANCH  15  16
HETATM   16  P3B HMG A 101      -1.460  -4.913 -20.868  1.00 54.86     0.422 P 
HETATM   17  O7A HMG A 101      -1.870  -3.754 -21.917  1.00 54.86    -0.617 OA
HETATM   18  O8A HMG A 101      -0.715  -4.268 -19.579  1.00 54.86    -0.617 OA
HETATM   19  O9A HMG A 101      -0.502  -6.013 -21.572  1.00 54.86    -0.617 OA
ENDBRANCH  15  16
ENDBRANCH  11  15
BRANCH  12  20
HETATM   20  O2B HMG A 101      -5.367  -5.397 -21.311  1.00 54.86    -0.388 OA
HETATM   21 BHO2 HMG A 101      -5.753  -4.906 -22.040  1.00  0.00     0.210 HD
ENDBRANCH  12  20
BRANCH  13  22
HETATM   22  N9A HMG A 101      -6.418  -3.316 -18.443  1.00 54.86    -0.294 N 
HETATM   23  C4A HMG A 101      -5.610  -2.249 -18.116  1.00 54.86     0.167 A 
HETATM   24  N3A HMG A 101      -4.176  -1.987 -18.270  1.00 54.86    -0.222 NA
HETATM   25  C5A HMG A 101      -6.461  -1.216 -17.532  1.00 54.86     0.149 A 
HETATM   26  C2A HMG A 101      -3.773  -0.817 -17.837  1.00 54.86     0.237 A 
HETATM   27  N1A HMG A 101      -4.501   0.151 -17.298  1.00 54.86    -0.222 NA
HETATM   28  C6A HMG A 101      -5.810   0.007 -17.120  1.00 54.86     0.155 A 
HETATM   29  N6A HMG A 101      -6.498   1.006 -16.577  1.00 54.86    -0.382 N 
HETATM   30 1H6A HMG A 101      -6.024   1.854 -16.302  1.00  0.00     0.157 HD
HETATM   31 2H6A HMG A 101      -7.494   0.916 -16.439  1.00  0.00     0.157 HD
HETATM   32  N7A HMG A 101      -7.787  -1.583 -17.445  1.00 54.86    -0.236 NA
HETATM   33  C8A HMG A 101      -7.644  -2.827 -18.009  1.00 54.86     0.214 A 
ENDBRANCH  13  22
ENDBRANCH   9  10
ENDBRANCH   8   9
ENDBRANCH   5   8
ENDBRANCH   4   5
ENDBRANCH   1   4
BRANCH   1  34
HETATM   34  O6A HMG A 101       1.817  -6.717 -13.803  1.00 54.86    -0.289 OA
BRANCH  34  35
HETATM   35  CCP HMG A 101       1.948  -5.847 -12.668  1.00 54.86     0.193 C 
BRANCH  35  36
HETATM   36  CBP HMG A 101       2.989  -6.360 -11.628  1.00 54.86     0.009 C 
HETATM   37  CEP HMG A 101       2.190  -6.952 -10.421  1.00 54.86     0.020 C 
HETATM   38  CDP HMG A 101       3.817  -5.146 -11.121  1.00 54.86     0.020 C 
BRANCH  36  39
HETATM   39  CAP HMG A 101       3.935  -7.445 -12.308  1.00 54.86     0.219 C 
BRANCH  39  40
HETATM   40  C9P HMG A 101       4.926  -8.107 -11.337  1.00 54.86     0.247 C 
HETATM   41  N8P HMG A 101       4.449  -9.051 -10.486  1.00 54.86    -0.358 N 
HETATM   42  H8P HMG A 101       3.519  -9.414 -10.632  1.00  0.00     0.162 HD
HETATM   43  O9P HMG A 101       6.117  -7.763 -11.389  1.00 54.86    -0.271 OA
BRANCH  41  44
HETATM   44  C7P HMG A 101       5.252  -9.565  -9.350  1.00 54.86     0.132 C 
BRANCH  44  45
HETATM   45  C6P HMG A 101       5.052  -8.700  -8.086  1.00 54.86     0.122 C 
BRANCH  45  46
HETATM   46  C5P HMG A 101       6.346  -8.160  -7.515  1.00 54.86     0.219 C 
HETATM   47  O5P HMG A 101       7.349  -8.134  -8.230  1.00 54.86    -0.274 OA
HETATM   48  N4P HMG A 101       6.310  -7.750  -6.233  1.00 54.86    -0.360 N 
HETATM   49  H4P HMG A 101       5.464  -7.321  -5.884  1.00  0.00     0.162 HD
BRANCH  48  50
HETATM   50  C3P HMG A 101       7.465  -7.906  -5.310  1.00 54.86     0.133 C 
BRANCH  50  51
HETATM   51  C2P HMG A 101       7.557  -6.688  -4.373  1.00 54.86     0.102 C 
BRANCH  51  52
HETATM   52  S1P HMG A 101       9.308  -6.246  -4.072  1.00 54.86    -0.091 SA
BRANCH  52  53
HETATM   53  C1  HMG A 101       9.777  -5.179  -5.489  1.00 54.86     0.188 C 
HETATM   54  O2  HMG A 101       9.388  -5.396  -6.670  1.00 54.86    -0.285 OA
BRANCH  53  55
HETATM   55  C2  HMG A 101      10.691  -3.962  -5.196  1.00 54.86     0.128 C 
BRANCH  55  56
HETATM   56  C3  HMG A 101      10.350  -2.621  -5.904  1.00 54.86     0.071 C 
HETATM   57  C6  HMG A 101      11.531  -2.098  -6.765  1.00 54.86     0.047 C 
BRANCH  56  58
HETATM   58  O7  HMG A 101       9.231  -2.844  -6.771  1.00 54.86    -0.389 OA
HETATM   59  H7  HMG A 101       8.637  -3.481  -6.369  1.00  0.00     0.210 HD
ENDBRANCH  56  58
BRANCH  56  60
HETATM   60  C4  HMG A 101       9.938  -1.587  -4.809  1.00 54.86     0.150 C 
BRANCH  60  61
HETATM   61  C5  HMG A 101       8.428  -1.402  -4.507  1.00 54.86     0.175 C 
HETATM   62  O4  HMG A 101       8.005  -2.143  -3.430  1.00 54.86    -0.648 OA
HETATM   63  O3  HMG A 101       7.695  -0.668  -5.162  1.00 54.86    -0.648 OA
ENDBRANCH  60  61
ENDBRANCH  56  60
ENDBRANCH  55  56
ENDBRANCH  53  55
ENDBRANCH  52  53
ENDBRANCH  51  52
ENDBRANCH  50  51
ENDBRANCH  48  50
ENDBRANCH  45  46
ENDBRANCH  44  45
ENDBRANCH  41  44
ENDBRANCH  39  40
BRANCH  39  64
HETATM   64  OAP HMG A 101       4.669  -6.848 -13.397  1.00 54.86    -0.385 OA
HETATM   65 PHOA HMG A 101       4.718  -5.897 -13.267  1.00  0.00     0.210 HD
ENDBRANCH  39  64
ENDBRANCH  36  39
ENDBRANCH  35  36
ENDBRANCH  34  35
ENDBRANCH   1  34
TORSDOF 27
                                                                                                                                                         
ENDMDL
MODEL 7
REMARK VINA RESULT:    -6.487      3.983      6.319
REMARK INTER + INTRA:         -20.285
REMARK INTER:                 -14.874
REMARK INTRA:                  -5.411
REMARK UNBOUND:                -4.127
REMARK  27 active torsions:
REMARK  status: ('A' for Active; 'I' for Inactive)
REMARK    1  A    between atoms: O3A_4  and  P2A_1 
REMARK    2  A    between atoms: O6A_5  and  P2A_1 
REMARK    3  A    between atoms: O3A_4  and  P1A_6 
REMARK    4  A    between atoms: CCP_33  and  O6A_5 
REMARK    5  A    between atoms: O5B_9  and  P1A_6 
REMARK    6  A    between atoms: C5B_10  and  O5B_9 
REMARK    7  A    between atoms: C4B_11  and  C5B_10 
REMARK    8  A    between atoms: C3B_13  and  O3B_14 
REMARK    9  A    between atoms: O3B_14  and  P3B_18 
REMARK   10  A    between atoms: C2B_15  and  O2B_16 
REMARK   11  A    between atoms: C1B_17  and  N9A_22 
REMARK   12  A    between atoms: CAP_36  and  CBP_32 
REMARK   13  A    between atoms: CBP_32  and  CCP_33 
REMARK   14  A    between atoms: C9P_38  and  CAP_36 
REMARK   15  A    between atoms: CAP_36  and  OAP_37 
REMARK       I    between atoms: C9P_38  and  N8P_40 
REMARK   16  A    between atoms: C7P_41  and  N8P_40 
REMARK   17  A    between atoms: C6P_42  and  C7P_41 
REMARK   18  A    between atoms: C5P_43  and  C6P_42 
REMARK       I    between atoms: C5P_43  and  N4P_45 
REMARK   19  A    between atoms: C3P_46  and  N4P_45 
REMARK   20  A    between atoms: C2P_47  and  C3P_46 
REMARK   21  A    between atoms: C2P_47  and  S1P_48 
REMARK   22  A    between atoms: C1_49  and  S1P_48 
REMARK   23  A    between atoms: C1_49  and  C2_51 
REMARK   24  A    between atoms: C2_51  and  C3_52 
REMARK   25  A    between atoms: C3_52  and  O7_53 
REMARK   26  A    between atoms: C3_52  and  C4_54 
REMARK   27  A    between atoms: C4_54  and  C5_55 
ROOT
HETATM    1  P2A HMG A 101      -8.181  -2.961 -19.150  1.00 54.86     0.417 P 
HETATM    2  O5A HMG A 101      -9.391  -3.967 -18.827  1.00 54.86    -0.624 OA
HETATM    3  O4A HMG A 101      -8.126  -2.590 -20.719  1.00 54.86    -0.624 OA
ENDROOT
BRANCH   1   4
HETATM    4  O3A HMG A 101      -6.799  -3.652 -18.669  1.00 54.86    -0.180 OA
BRANCH   4   5
HETATM    5  P1A HMG A 101      -6.274  -5.098 -19.216  1.00 54.86     0.417 P 
HETATM    6  O1A HMG A 101      -6.914  -5.430 -20.678  1.00 54.86    -0.624 OA
HETATM    7  O2A HMG A 101      -6.637  -6.239 -18.113  1.00 54.86    -0.624 OA
BRANCH   5   8
HETATM    8  O5B HMG A 101      -4.700  -5.036 -19.427  1.00 54.86    -0.287 OA
BRANCH   8   9
HETATM    9  C5B HMG A 101      -4.063  -3.818 -19.169  1.00 54.86     0.216 C 
BRANCH   9  10
HETATM   10  C4B HMG A 101      -2.643  -3.909 -19.694  1.00 54.86     0.180 C 
HETATM   11  C3B HMG A 101      -2.322  -5.324 -20.155  1.00 54.86     0.199 C 
HETATM   12  C2B HMG A 101      -0.981  -5.654 -19.497  1.00 54.86     0.199 C 
HETATM   13  C1B HMG A 101      -0.911  -4.685 -18.326  1.00 54.86     0.262 C 
HETATM   14  O4B HMG A 101      -1.746  -3.572 -18.636  1.00 54.86    -0.353 OA
BRANCH  11  15
HETATM   15  O3B HMG A 101      -2.320  -5.371 -21.592  1.00 54.86    -0.272 OA
BRANCH  15  16
HETATM   16  P3B HMG A 101      -2.679  -6.767 -22.295  1.00 54.86     0.422 P 
HETATM   17  O7A HMG A 101      -1.312  -7.628 -22.336  1.00 54.86    -0.617 OA
HETATM   18  O8A HMG A 101      -3.798  -7.530 -21.401  1.00 54.86    -0.617 OA
HETATM   19  O9A HMG A 101      -3.242  -6.511 -23.792  1.00 54.86    -0.617 OA
ENDBRANCH  15  16
ENDBRANCH  11  15
BRANCH  12  20
HETATM   20  O2B HMG A 101       0.111  -5.520 -20.403  1.00 54.86    -0.388 OA
HETATM   21 BHO2 HMG A 101       0.621  -6.334 -20.412  1.00  0.00     0.210 HD
ENDBRANCH  12  20
BRANCH  13  22
HETATM   22  N9A HMG A 101      -1.349  -5.242 -17.019  1.00 54.86    -0.294 N 
HETATM   23  C4A HMG A 101      -0.665  -6.056 -16.142  1.00 54.86     0.167 A 
HETATM   24  N3A HMG A 101       0.676  -6.646 -16.153  1.00 54.86    -0.222 NA
HETATM   25  C5A HMG A 101      -1.533  -6.291 -14.992  1.00 54.86     0.149 A 
HETATM   26  C2A HMG A 101       0.976  -7.371 -15.102  1.00 54.86     0.237 A 
HETATM   27  N1A HMG A 101       0.226  -7.617 -14.037  1.00 54.86    -0.222 NA
HETATM   28  C6A HMG A 101      -1.004  -7.123 -13.935  1.00 54.86     0.155 A 
HETATM   29  N6A HMG A 101      -1.718  -7.396 -12.848  1.00 54.86    -0.382 N 
HETATM   30 1H6A HMG A 101      -1.327  -7.975 -12.120  1.00  0.00     0.157 HD
HETATM   31 2H6A HMG A 101      -2.652  -7.025 -12.752  1.00  0.00     0.157 HD
HETATM   32  N7A HMG A 101      -2.764  -5.680 -15.102  1.00 54.86    -0.236 NA
HETATM   33  C8A HMG A 101      -2.543  -5.095 -16.324  1.00 54.86     0.214 A 
ENDBRANCH  13  22
ENDBRANCH   9  10
ENDBRANCH   8   9
ENDBRANCH   5   8
ENDBRANCH   4   5
ENDBRANCH   1   4
BRANCH   1  34
HETATM   34  O6A HMG A 101      -8.349  -1.612 -18.309  1.00 54.86    -0.289 OA
BRANCH  34  35
HETATM   35  CCP HMG A 101      -7.518  -1.335 -17.171  1.00 54.86     0.193 C 
BRANCH  35  36
HETATM   36  CBP HMG A 101      -6.720  -0.004 -17.312  1.00 54.86     0.009 C 
HETATM   37  CEP HMG A 101      -7.377   1.039 -16.349  1.00 54.86     0.020 C 
HETATM   38  CDP HMG A 101      -6.873   0.510 -18.771  1.00 54.86     0.020 C 
BRANCH  36  39
HETATM   39  CAP HMG A 101      -5.188  -0.259 -16.960  1.00 54.86     0.219 C 
BRANCH  39  40
HETATM   40  C9P HMG A 101      -4.204   0.477 -17.883  1.00 54.86     0.247 C 
HETATM   41  N8P HMG A 101      -3.984   1.797 -17.656  1.00 54.86    -0.358 N 
HETATM   42  H8P HMG A 101      -4.325   2.209 -16.800  1.00  0.00     0.162 HD
HETATM   43  O9P HMG A 101      -3.641  -0.173 -18.778  1.00 54.86    -0.271 OA
BRANCH  41  44
HETATM   44  C7P HMG A 101      -3.259   2.653 -18.626  1.00 54.86     0.132 C 
BRANCH  44  45
HETATM   45  C6P HMG A 101      -2.341   3.664 -17.904  1.00 54.86     0.122 C 
BRANCH  45  46
HETATM   46  C5P HMG A 101      -1.344   3.012 -16.970  1.00 54.86     0.219 C 
HETATM   47  O5P HMG A 101      -1.642   2.870 -15.783  1.00 54.86    -0.274 OA
HETATM   48  N4P HMG A 101      -0.170   2.638 -17.514  1.00 54.86    -0.360 N 
HETATM   49  H4P HMG A 101      -0.161   2.303 -18.467  1.00  0.00     0.162 HD
BRANCH  48  50
HETATM   50  C3P HMG A 101       1.115   2.701 -16.767  1.00 54.86     0.133 C 
BRANCH  50  51
HETATM   51  C2P HMG A 101       2.296   2.546 -17.741  1.00 54.86     0.102 C 
BRANCH  51  52
HETATM   52  S1P HMG A 101       2.902   0.818 -17.740  1.00 54.86    -0.091 SA
BRANCH  52  53
HETATM   53  C1  HMG A 101       2.104   0.036 -19.195  1.00 54.86     0.188 C 
HETATM   54  O2  HMG A 101       0.925   0.301 -19.558  1.00 54.86    -0.285 OA
BRANCH  53  55
HETATM   55  C2  HMG A 101       2.938  -0.994 -19.999  1.00 54.86     0.128 C 
BRANCH  55  56
HETATM   56  C3  HMG A 101       2.209  -2.269 -20.508  1.00 54.86     0.071 C 
HETATM   57  C6  HMG A 101       3.094  -3.538 -20.387  1.00 54.86     0.047 C 
BRANCH  56  58
HETATM   58  O7  HMG A 101       1.037  -2.465 -19.705  1.00 54.86    -0.389 OA
HETATM   59  H7  HMG A 101       0.354  -1.852 -19.982  1.00  0.00     0.210 HD
ENDBRANCH  56  58
BRANCH  56  60
HETATM   60  C4  HMG A 101       1.768  -2.017 -21.985  1.00 54.86     0.150 C 
BRANCH  60  61
HETATM   61  C5  HMG A 101       0.256  -2.097 -22.322  1.00 54.86     0.175 C 
HETATM   62  O4  HMG A 101      -0.283  -0.877 -22.650  1.00 54.86    -0.648 OA
HETATM   63  O3  HMG A 101      -0.384  -3.144 -22.301  1.00 54.86    -0.648 OA
ENDBRANCH  60  61
ENDBRANCH  56  60
ENDBRANCH  55  56
ENDBRANCH  53  55
ENDBRANCH  52  53
ENDBRANCH  51  52
ENDBRANCH  50  51
ENDBRANCH  48  50
ENDBRANCH  45  46
ENDBRANCH  44  45
ENDBRANCH  41  44
ENDBRANCH  39  40
BRANCH  39  64
HETATM   64  OAP HMG A 101      -4.902  -1.673 -16.995  1.00 54.86    -0.385 OA
HETATM   65 PHOA HMG A 101      -4.750  -1.946 -17.904  1.00  0.00     0.210 HD
ENDBRANCH  39  64
ENDBRANCH  36  39
ENDBRANCH  35  36
ENDBRANCH  34  35
ENDBRANCH   1  34
TORSDOF 27
                                                                                                                                                         
ENDMDL
MODEL 8
REMARK VINA RESULT:    -6.480      5.866      9.937
REMARK INTER + INTRA:         -20.266
REMARK INTER:                 -16.788
REMARK INTRA:                  -3.478
REMARK UNBOUND:                -4.127
REMARK  27 active torsions:
REMARK  status: ('A' for Active; 'I' for Inactive)
REMARK    1  A    between atoms: O3A_4  and  P2A_1 
REMARK    2  A    between atoms: O6A_5  and  P2A_1 
REMARK    3  A    between atoms: O3A_4  and  P1A_6 
REMARK    4  A    between atoms: CCP_33  and  O6A_5 
REMARK    5  A    between atoms: O5B_9  and  P1A_6 
REMARK    6  A    between atoms: C5B_10  and  O5B_9 
REMARK    7  A    between atoms: C4B_11  and  C5B_10 
REMARK    8  A    between atoms: C3B_13  and  O3B_14 
REMARK    9  A    between atoms: O3B_14  and  P3B_18 
REMARK   10  A    between atoms: C2B_15  and  O2B_16 
REMARK   11  A    between atoms: C1B_17  and  N9A_22 
REMARK   12  A    between atoms: CAP_36  and  CBP_32 
REMARK   13  A    between atoms: CBP_32  and  CCP_33 
REMARK   14  A    between atoms: C9P_38  and  CAP_36 
REMARK   15  A    between atoms: CAP_36  and  OAP_37 
REMARK       I    between atoms: C9P_38  and  N8P_40 
REMARK   16  A    between atoms: C7P_41  and  N8P_40 
REMARK   17  A    between atoms: C6P_42  and  C7P_41 
REMARK   18  A    between atoms: C5P_43  and  C6P_42 
REMARK       I    between atoms: C5P_43  and  N4P_45 
REMARK   19  A    between atoms: C3P_46  and  N4P_45 
REMARK   20  A    between atoms: C2P_47  and  C3P_46 
REMARK   21  A    between atoms: C2P_47  and  S1P_48 
REMARK   22  A    between atoms: C1_49  and  S1P_48 
REMARK   23  A    between atoms: C1_49  and  C2_51 
REMARK   24  A    between atoms: C2_51  and  C3_52 
REMARK   25  A    between atoms: C3_52  and  O7_53 
REMARK   26  A    between atoms: C3_52  and  C4_54 
REMARK   27  A    between atoms: C4_54  and  C5_55 
ROOT
HETATM    1  P2A HMG A 101       0.539  -7.476 -14.155  1.00 54.86     0.417 P 
HETATM    2  O5A HMG A 101       0.595  -8.824 -15.029  1.00 54.86    -0.624 OA
HETATM    3  O4A HMG A 101      -0.906  -7.281 -13.464  1.00 54.86    -0.624 OA
ENDROOT
BRANCH   1   4
HETATM    4  O3A HMG A 101       0.894  -6.226 -15.120  1.00 54.86    -0.180 OA
BRANCH   4   5
HETATM    5  P1A HMG A 101      -0.095  -5.688 -16.302  1.00 54.86     0.417 P 
HETATM    6  O1A HMG A 101       0.730  -5.470 -17.691  1.00 54.86    -0.624 OA
HETATM    7  O2A HMG A 101      -0.821  -4.322 -15.796  1.00 54.86    -0.624 OA
BRANCH   5   8
HETATM    8  O5B HMG A 101      -1.191  -6.797 -16.610  1.00 54.86    -0.287 OA
BRANCH   8   9
HETATM    9  C5B HMG A 101      -1.847  -6.729 -17.843  1.00 54.86     0.216 C 
BRANCH   9  10
HETATM   10  C4B HMG A 101      -3.341  -6.703 -17.582  1.00 54.86     0.180 C 
HETATM   11  C3B HMG A 101      -4.123  -6.753 -18.887  1.00 54.86     0.199 C 
HETATM   12  C2B HMG A 101      -5.147  -5.623 -18.773  1.00 54.86     0.199 C 
HETATM   13  C1B HMG A 101      -4.544  -4.701 -17.723  1.00 54.86     0.262 C 
HETATM   14  O4B HMG A 101      -3.664  -5.482 -16.918  1.00 54.86    -0.353 OA
BRANCH  11  15
HETATM   15  O3B HMG A 101      -4.685  -8.066 -19.059  1.00 54.86    -0.272 OA
BRANCH  15  16
HETATM   16  P3B HMG A 101      -4.203  -8.926 -20.324  1.00 54.86     0.422 P 
HETATM   17  O7A HMG A 101      -2.852  -9.691 -19.874  1.00 54.86    -0.617 OA
HETATM   18  O8A HMG A 101      -5.360  -9.999 -20.699  1.00 54.86    -0.617 OA
HETATM   19  O9A HMG A 101      -3.917  -7.951 -21.586  1.00 54.86    -0.617 OA
ENDBRANCH  15  16
ENDBRANCH  11  15
BRANCH  12  20
HETATM   20  O2B HMG A 101      -6.443  -6.103 -18.421  1.00 54.86    -0.388 OA
HETATM   21 BHO2 HMG A 101      -7.088  -5.773 -19.052  1.00  0.00     0.210 HD
ENDBRANCH  12  20
BRANCH  13  22
HETATM   22  N9A HMG A 101      -3.777  -3.548 -18.261  1.00 54.86    -0.294 N 
HETATM   23  C4A HMG A 101      -3.969  -2.198 -18.057  1.00 54.86     0.167 A 
HETATM   24  N3A HMG A 101      -4.938  -1.426 -17.276  1.00 54.86    -0.222 NA
HETATM   25  C5A HMG A 101      -2.922  -1.490 -18.789  1.00 54.86     0.149 A 
HETATM   26  C2A HMG A 101      -4.783  -0.125 -17.323  1.00 54.86     0.237 A 
HETATM   27  N1A HMG A 101      -3.856   0.566 -17.972  1.00 54.86    -0.222 NA
HETATM   28  C6A HMG A 101      -2.932  -0.047 -18.705  1.00 54.86     0.155 A 
HETATM   29  N6A HMG A 101      -2.022   0.687 -19.338  1.00 54.86    -0.382 N 
HETATM   30 1H6A HMG A 101      -2.044   1.694 -19.261  1.00  0.00     0.157 HD
HETATM   31 2H6A HMG A 101      -1.310   0.238 -19.895  1.00  0.00     0.157 HD
HETATM   32  N7A HMG A 101      -2.074  -2.329 -19.481  1.00 54.86    -0.236 NA
HETATM   33  C8A HMG A 101      -2.667  -3.506 -19.097  1.00 54.86     0.214 A 
ENDBRANCH  13  22
ENDBRANCH   9  10
ENDBRANCH   8   9
ENDBRANCH   5   8
ENDBRANCH   4   5
ENDBRANCH   1   4
BRANCH   1  34
HETATM   34  O6A HMG A 101       1.654  -7.518 -13.010  1.00 54.86    -0.289 OA
BRANCH  34  35
HETATM   35  CCP HMG A 101       1.658  -6.560 -11.940  1.00 54.86     0.193 C 
BRANCH  35  36
HETATM   36  CBP HMG A 101       3.080  -6.314 -11.351  1.00 54.86     0.009 C 
HETATM   37  CEP HMG A 101       3.605  -7.685 -10.812  1.00 54.86     0.020 C 
HETATM   38  CDP HMG A 101       2.954  -5.331 -10.153  1.00 54.86     0.020 C 
BRANCH  36  39
HETATM   39  CAP HMG A 101       4.029  -5.712 -12.478  1.00 54.86     0.219 C 
BRANCH  39  40
HETATM   40  C9P HMG A 101       5.014  -6.730 -13.075  1.00 54.86     0.247 C 
HETATM   41  N8P HMG A 101       4.636  -7.401 -14.193  1.00 54.86    -0.358 N 
HETATM   42  H8P HMG A 101       3.815  -7.092 -14.694  1.00  0.00     0.162 HD
HETATM   43  O9P HMG A 101       6.114  -6.877 -12.521  1.00 54.86    -0.271 OA
BRANCH  41  44
HETATM   44  C7P HMG A 101       5.390  -8.572 -14.702  1.00 54.86     0.132 C 
BRANCH  44  45
HETATM   45  C6P HMG A 101       5.795  -8.377 -16.181  1.00 54.86     0.122 C 
BRANCH  45  46
HETATM   46  C5P HMG A 101       6.902  -7.363 -16.375  1.00 54.86     0.219 C 
HETATM   47  O5P HMG A 101       7.628  -7.084 -15.419  1.00 54.86    -0.274 OA
HETATM   48  N4P HMG A 101       7.007  -6.817 -17.601  1.00 54.86    -0.360 N 
HETATM   49  H4P HMG A 101       6.790  -7.387 -18.406  1.00  0.00     0.162 HD
BRANCH  48  50
HETATM   50  C3P HMG A 101       7.428  -5.408 -17.816  1.00 54.86     0.133 C 
BRANCH  50  51
HETATM   51  C2P HMG A 101       6.967  -4.928 -19.204  1.00 54.86     0.102 C 
BRANCH  51  52
HETATM   52  S1P HMG A 101       8.079  -5.577 -20.505  1.00 54.86    -0.091 SA
BRANCH  52  53
HETATM   53  C1  HMG A 101       7.183  -7.009 -21.222  1.00 54.86     0.188 C 
HETATM   54  O2  HMG A 101       5.964  -6.966 -21.543  1.00 54.86    -0.285 OA
BRANCH  53  55
HETATM   55  C2  HMG A 101       7.984  -8.320 -21.433  1.00 54.86     0.128 C 
BRANCH  55  56
HETATM   56  C3  HMG A 101       8.073  -9.308 -20.237  1.00 54.86     0.071 C 
HETATM   57  C6  HMG A 101       9.322  -9.046 -19.352  1.00 54.86     0.047 C 
BRANCH  56  58
HETATM   58  O7  HMG A 101       6.906  -9.132 -19.422  1.00 54.86    -0.389 OA
HETATM   59  H7  HMG A 101       6.984  -9.669 -18.631  1.00  0.00     0.210 HD
ENDBRANCH  56  58
BRANCH  56  60
HETATM   60  C4  HMG A 101       8.071 -10.761 -20.808  1.00 54.86     0.150 C 
BRANCH  60  61
HETATM   61  C5  HMG A 101       9.436 -11.462 -21.033  1.00 54.86     0.175 C 
HETATM   62  O4  HMG A 101      10.059 -11.058 -22.189  1.00 54.86    -0.648 OA
HETATM   63  O3  HMG A 101       9.907 -12.286 -20.255  1.00 54.86    -0.648 OA
ENDBRANCH  60  61
ENDBRANCH  56  60
ENDBRANCH  55  56
ENDBRANCH  53  55
ENDBRANCH  52  53
ENDBRANCH  51  52
ENDBRANCH  50  51
ENDBRANCH  48  50
ENDBRANCH  45  46
ENDBRANCH  44  45
ENDBRANCH  41  44
ENDBRANCH  39  40
BRANCH  39  64
HETATM   64  OAP HMG A 101       4.770  -4.591 -11.953  1.00 54.86    -0.385 OA
HETATM   65 PHOA HMG A 101       4.785  -3.884 -12.604  1.00  0.00     0.210 HD
ENDBRANCH  39  64
ENDBRANCH  36  39
ENDBRANCH  35  36
ENDBRANCH  34  35
ENDBRANCH   1  34
TORSDOF 27
                                                                                                                                                         
ENDMDL
MODEL 9
REMARK VINA RESULT:    -6.467      6.241     11.407
REMARK INTER + INTRA:         -20.234
REMARK INTER:                 -17.356
REMARK INTRA:                  -2.877
REMARK UNBOUND:                -4.127
REMARK  27 active torsions:
REMARK  status: ('A' for Active; 'I' for Inactive)
REMARK    1  A    between atoms: O3A_4  and  P2A_1 
REMARK    2  A    between atoms: O6A_5  and  P2A_1 
REMARK    3  A    between atoms: O3A_4  and  P1A_6 
REMARK    4  A    between atoms: CCP_33  and  O6A_5 
REMARK    5  A    between atoms: O5B_9  and  P1A_6 
REMARK    6  A    between atoms: C5B_10  and  O5B_9 
REMARK    7  A    between atoms: C4B_11  and  C5B_10 
REMARK    8  A    between atoms: C3B_13  and  O3B_14 
REMARK    9  A    between atoms: O3B_14  and  P3B_18 
REMARK   10  A    between atoms: C2B_15  and  O2B_16 
REMARK   11  A    between atoms: C1B_17  and  N9A_22 
REMARK   12  A    between atoms: CAP_36  and  CBP_32 
REMARK   13  A    between atoms: CBP_32  and  CCP_33 
REMARK   14  A    between atoms: C9P_38  and  CAP_36 
REMARK   15  A    between atoms: CAP_36  and  OAP_37 
REMARK       I    between atoms: C9P_38  and  N8P_40 
REMARK   16  A    between atoms: C7P_41  and  N8P_40 
REMARK   17  A    between atoms: C6P_42  and  C7P_41 
REMARK   18  A    between atoms: C5P_43  and  C6P_42 
REMARK       I    between atoms: C5P_43  and  N4P_45 
REMARK   19  A    between atoms: C3P_46  and  N4P_45 
REMARK   20  A    between atoms: C2P_47  and  C3P_46 
REMARK   21  A    between atoms: C2P_47  and  S1P_48 
REMARK   22  A    between atoms: C1_49  and  S1P_48 
REMARK   23  A    between atoms: C1_49  and  C2_51 
REMARK   24  A    between atoms: C2_51  and  C3_52 
REMARK   25  A    between atoms: C3_52  and  O7_53 
REMARK   26  A    between atoms: C3_52  and  C4_54 
REMARK   27  A    between atoms: C4_54  and  C5_55 
ROOT
HETATM    1  P2A HMG A 101      -5.487  -5.663 -18.818  1.00 54.86     0.417 P 
HETATM    2  O5A HMG A 101      -4.813  -5.852 -20.265  1.00 54.86    -0.624 OA
HETATM    3  O4A HMG A 101      -6.435  -6.914 -18.442  1.00 54.86    -0.624 OA
ENDROOT
BRANCH   1   4
HETATM    4  O3A HMG A 101      -6.326  -4.279 -18.821  1.00 54.86    -0.180 OA
BRANCH   4   5
HETATM    5  P1A HMG A 101      -7.795  -4.115 -19.513  1.00 54.86     0.417 P 
HETATM    6  O1A HMG A 101      -8.971  -4.595 -18.492  1.00 54.86    -0.624 OA
HETATM    7  O2A HMG A 101      -7.813  -4.951 -20.909  1.00 54.86    -0.624 OA
BRANCH   5   8
HETATM    8  O5B HMG A 101      -8.065  -2.576 -19.805  1.00 54.86    -0.287 OA
BRANCH   8   9
HETATM    9  C5B HMG A 101      -7.055  -1.670 -19.468  1.00 54.86     0.216 C 
BRANCH   9  10
HETATM   10  C4B HMG A 101      -7.289  -1.214 -18.040  1.00 54.86     0.180 C 
HETATM   11  C3B HMG A 101      -7.642   0.267 -17.992  1.00 54.86     0.199 C 
HETATM   12  C2B HMG A 101      -6.727   0.853 -16.917  1.00 54.86     0.199 C 
HETATM   13  C1B HMG A 101      -5.589  -0.154 -16.831  1.00 54.86     0.262 C 
HETATM   14  O4B HMG A 101      -6.084  -1.406 -17.300  1.00 54.86    -0.353 OA
BRANCH  11  15
HETATM   15  O3B HMG A 101      -9.050   0.416 -17.737  1.00 54.86    -0.272 OA
BRANCH  15  16
HETATM   16  P3B HMG A 101      -9.957   1.054 -18.896  1.00 54.86     0.422 P 
HETATM   17  O7A HMG A 101      -9.001   1.224 -20.188  1.00 54.86    -0.617 OA
HETATM   18  O8A HMG A 101     -11.175   0.035 -19.227  1.00 54.86    -0.617 OA
HETATM   19  O9A HMG A 101     -10.542   2.487 -18.421  1.00 54.86    -0.617 OA
ENDBRANCH  15  16
ENDBRANCH  11  15
BRANCH  12  20
HETATM   20  O2B HMG A 101      -7.403   1.043 -15.677  1.00 54.86    -0.388 OA
HETATM   21 BHO2 HMG A 101      -6.838   1.534 -15.076  1.00  0.00     0.210 HD
ENDBRANCH  12  20
BRANCH  13  22
HETATM   22  N9A HMG A 101      -4.380   0.191 -17.624  1.00 54.86    -0.294 N 
HETATM   23  C4A HMG A 101      -3.457  -0.642 -18.221  1.00 54.86     0.167 A 
HETATM   24  N3A HMG A 101      -3.323  -2.099 -18.304  1.00 54.86    -0.222 NA
HETATM   25  C5A HMG A 101      -2.480   0.201 -18.903  1.00 54.86     0.149 A 
HETATM   26  C2A HMG A 101      -2.291  -2.525 -18.991  1.00 54.86     0.237 A 
HETATM   27  N1A HMG A 101      -1.375  -1.805 -19.624  1.00 54.86    -0.222 NA
HETATM   28  C6A HMG A 101      -1.416  -0.477 -19.608  1.00 54.86     0.155 A 
HETATM   29  N6A HMG A 101      -0.477   0.202 -20.259  1.00 54.86    -0.382 N 
HETATM   30 1H6A HMG A 101       0.254  -0.291 -20.750  1.00  0.00     0.157 HD
HETATM   31 2H6A HMG A 101      -0.495   1.212 -20.262  1.00  0.00     0.157 HD
HETATM   32  N7A HMG A 101      -2.719   1.550 -18.751  1.00 54.86    -0.236 NA
HETATM   33  C8A HMG A 101      -3.854   1.425 -17.989  1.00 54.86     0.214 A 
ENDBRANCH  13  22
ENDBRANCH   9  10
ENDBRANCH   8   9
ENDBRANCH   5   8
ENDBRANCH   4   5
ENDBRANCH   1   4
BRANCH   1  34
HETATM   34  O6A HMG A 101      -4.354  -5.524 -17.699  1.00 54.86    -0.289 OA
BRANCH  34  35
HETATM   35  CCP HMG A 101      -3.021  -6.011 -17.925  1.00 54.86     0.193 C 
BRANCH  35  36
HETATM   36  CBP HMG A 101      -2.114  -5.904 -16.661  1.00 54.86     0.009 C 
HETATM   37  CEP HMG A 101      -2.653  -4.715 -15.800  1.00 54.86     0.020 C 
HETATM   38  CDP HMG A 101      -0.669  -5.562 -17.120  1.00 54.86     0.020 C 
BRANCH  36  39
HETATM   39  CAP HMG A 101      -2.144  -7.281 -15.863  1.00 54.86     0.219 C 
BRANCH  39  40
HETATM   40  C9P HMG A 101      -1.381  -7.248 -14.530  1.00 54.86     0.247 C 
HETATM   41  N8P HMG A 101      -0.047  -7.498 -14.553  1.00 54.86    -0.358 N 
HETATM   42  H8P HMG A 101       0.430  -7.520 -15.443  1.00  0.00     0.162 HD
HETATM   43  O9P HMG A 101      -2.014  -6.974 -13.498  1.00 54.86    -0.271 OA
BRANCH  41  44
HETATM   44  C7P HMG A 101       0.732  -7.738 -13.314  1.00 54.86     0.132 C 
BRANCH  44  45
HETATM   45  C6P HMG A 101       1.700  -6.569 -13.025  1.00 54.86     0.122 C 
BRANCH  45  46
HETATM   46  C5P HMG A 101       2.089  -6.455 -11.567  1.00 54.86     0.219 C 
HETATM   47  O5P HMG A 101       1.711  -5.475 -10.923  1.00 54.86    -0.274 OA
HETATM   48  N4P HMG A 101       2.851  -7.449 -11.071  1.00 54.86    -0.360 N 
HETATM   49  H4P HMG A 101       2.706  -8.388 -11.413  1.00  0.00     0.162 HD
BRANCH  48  50
HETATM   50  C3P HMG A 101       3.897  -7.217 -10.040  1.00 54.86     0.133 C 
BRANCH  50  51
HETATM   51  C2P HMG A 101       4.134  -8.507  -9.234  1.00 54.86     0.102 C 
BRANCH  51  52
HETATM   52  S1P HMG A 101       5.304  -9.604 -10.117  1.00 54.86    -0.091 SA
BRANCH  52  53
HETATM   53  C1  HMG A 101       6.148 -10.558  -8.796  1.00 54.86     0.188 C 
HETATM   54  O2  HMG A 101       6.688 -10.014  -7.794  1.00 54.86    -0.285 OA
BRANCH  53  55
HETATM   55  C2  HMG A 101       6.183 -12.101  -8.941  1.00 54.86     0.128 C 
BRANCH  55  56
HETATM   56  C3  HMG A 101       5.223 -12.929  -8.042  1.00 54.86     0.071 C 
HETATM   57  C6  HMG A 101       3.886 -12.187  -7.773  1.00 54.86     0.047 C 
BRANCH  56  58
HETATM   58  O7  HMG A 101       4.923 -14.157  -8.719  1.00 54.86    -0.389 OA
HETATM   59  H7  HMG A 101       4.878 -14.871  -8.080  1.00  0.00     0.210 HD
ENDBRANCH  56  58
BRANCH  56  60
HETATM   60  C4  HMG A 101       5.971 -13.260  -6.711  1.00 54.86     0.150 C 
BRANCH  60  61
HETATM   61  C5  HMG A 101       5.362 -14.338  -5.777  1.00 54.86     0.175 C 
HETATM   62  O4  HMG A 101       5.583 -15.618  -6.224  1.00 54.86    -0.648 OA
HETATM   63  O3  HMG A 101       4.752 -14.070  -4.747  1.00 54.86    -0.648 OA
ENDBRANCH  60  61
ENDBRANCH  56  60
ENDBRANCH  55  56
ENDBRANCH  53  55
ENDBRANCH  52  53
ENDBRANCH  51  52
ENDBRANCH  50  51
ENDBRANCH  48  50
ENDBRANCH  45  46
ENDBRANCH  44  45
ENDBRANCH  41  44
ENDBRANCH  39  40
BRANCH  39  64
HETATM   64  OAP HMG A 101      -1.611  -8.340 -16.686  1.00 54.86    -0.385 OA
HETATM   65 PHOA HMG A 101      -0.673  -8.190 -16.833  1.00  0.00     0.210 HD
ENDBRANCH  39  64
ENDBRANCH  36  39
ENDBRANCH  35  36
ENDBRANCH  34  35
ENDBRANCH   1  34
TORSDOF 27
                                                                                                                                                         
ENDMDL
MODEL 10
REMARK VINA RESULT:    -6.455      5.474      8.633
REMARK INTER + INTRA:         -20.204
REMARK INTER:                 -15.879
REMARK INTRA:                  -4.324
REMARK UNBOUND:                -4.127
REMARK  27 active torsions:
REMARK  status: ('A' for Active; 'I' for Inactive)
REMARK    1  A    between atoms: O3A_4  and  P2A_1 
REMARK    2  A    between atoms: O6A_5  and  P2A_1 
REMARK    3  A    between atoms: O3A_4  and  P1A_6 
REMARK    4  A    between atoms: CCP_33  and  O6A_5 
REMARK    5  A    between atoms: O5B_9  and  P1A_6 
REMARK    6  A    between atoms: C5B_10  and  O5B_9 
REMARK    7  A    between atoms: C4B_11  and  C5B_10 
REMARK    8  A    between atoms: C3B_13  and  O3B_14 
REMARK    9  A    between atoms: O3B_14  and  P3B_18 
REMARK   10  A    between atoms: C2B_15  and  O2B_16 
REMARK   11  A    between atoms: C1B_17  and  N9A_22 
REMARK   12  A    between atoms: CAP_36  and  CBP_32 
REMARK   13  A    between atoms: CBP_32  and  CCP_33 
REMARK   14  A    between atoms: C9P_38  and  CAP_36 
REMARK   15  A    between atoms: CAP_36  and  OAP_37 
REMARK       I    between atoms: C9P_38  and  N8P_40 
REMARK   16  A    between atoms: C7P_41  and  N8P_40 
REMARK   17  A    between atoms: C6P_42  and  C7P_41 
REMARK   18  A    between atoms: C5P_43  and  C6P_42 
REMARK       I    between atoms: C5P_43  and  N4P_45 
REMARK   19  A    between atoms: C3P_46  and  N4P_45 
REMARK   20  A    between atoms: C2P_47  and  C3P_46 
REMARK   21  A    between atoms: C2P_47  and  S1P_48 
REMARK   22  A    between atoms: C1_49  and  S1P_48 
REMARK   23  A    between atoms: C1_49  and  C2_51 
REMARK   24  A    between atoms: C2_51  and  C3_52 
REMARK   25  A    between atoms: C3_52  and  O7_53 
REMARK   26  A    between atoms: C3_52  and  C4_54 
REMARK   27  A    between atoms: C4_54  and  C5_55 
ROOT
HETATM    1  P2A HMG A 101      -0.383  -4.189 -19.523  1.00 54.86     0.417 P 
HETATM    2  O5A HMG A 101       0.765  -3.543 -18.603  1.00 54.86    -0.624 OA
HETATM    3  O4A HMG A 101       0.227  -5.265 -20.559  1.00 54.86    -0.624 OA
ENDROOT
BRANCH   1   4
HETATM    4  O3A HMG A 101      -1.142  -2.994 -20.307  1.00 54.86    -0.180 OA
BRANCH   4   5
HETATM    5  P1A HMG A 101      -2.134  -3.237 -21.581  1.00 54.86     0.417 P 
HETATM    6  O1A HMG A 101      -2.799  -4.724 -21.520  1.00 54.86    -0.624 OA
HETATM    7  O2A HMG A 101      -1.293  -2.995 -22.953  1.00 54.86    -0.624 OA
BRANCH   5   8
HETATM    8  O5B HMG A 101      -3.344  -2.209 -21.504  1.00 54.86    -0.287 OA
BRANCH   8   9
HETATM    9  C5B HMG A 101      -3.932  -1.999 -20.252  1.00 54.86     0.216 C 
BRANCH   9  10
HETATM   10  C4B HMG A 101      -5.438  -2.006 -20.432  1.00 54.86     0.180 C 
HETATM   11  C3B HMG A 101      -6.148  -1.903 -19.089  1.00 54.86     0.199 C 
HETATM   12  C2B HMG A 101      -7.194  -3.017 -19.114  1.00 54.86     0.199 C 
HETATM   13  C1B HMG A 101      -6.664  -3.981 -20.166  1.00 54.86     0.262 C 
HETATM   14  O4B HMG A 101      -5.816  -3.241 -21.040  1.00 54.86    -0.353 OA
BRANCH  11  15
HETATM   15  O3B HMG A 101      -6.678  -0.576 -18.928  1.00 54.86    -0.272 OA
BRANCH  15  16
HETATM   16  P3B HMG A 101      -6.790   0.009 -17.438  1.00 54.86     0.422 P 
HETATM   17  O7A HMG A 101      -8.076  -0.698 -16.760  1.00 54.86    -0.617 OA
HETATM   18  O8A HMG A 101      -5.441  -0.376 -16.623  1.00 54.86    -0.617 OA
HETATM   19  O9A HMG A 101      -6.975   1.617 -17.483  1.00 54.86    -0.617 OA
ENDBRANCH  15  16
ENDBRANCH  11  15
BRANCH  12  20
HETATM   20  O2B HMG A 101      -8.499  -2.525 -19.410  1.00 54.86    -0.388 OA
HETATM   21 BHO2 HMG A 101      -8.711  -2.711 -20.328  1.00  0.00     0.210 HD
ENDBRANCH  12  20
BRANCH  13  22
HETATM   22  N9A HMG A 101      -5.888  -5.131 -19.634  1.00 54.86    -0.294 N 
HETATM   23  C4A HMG A 101      -5.562  -6.324 -20.244  1.00 54.86     0.167 A 
HETATM   24  N3A HMG A 101      -5.831  -6.882 -21.571  1.00 54.86    -0.222 NA
HETATM   25  C5A HMG A 101      -4.761  -7.097 -19.298  1.00 54.86     0.149 A 
HETATM   26  C2A HMG A 101      -5.328  -8.073 -21.789  1.00 54.86     0.237 A 
HETATM   27  N1A HMG A 101      -4.600  -8.816 -20.966  1.00 54.86    -0.222 NA
HETATM   28  C6A HMG A 101      -4.302  -8.393 -19.742  1.00 54.86     0.155 A 
HETATM   29  N6A HMG A 101      -3.568  -9.173 -18.954  1.00 54.86    -0.382 N 
HETATM   30 1H6A HMG A 101      -3.253 -10.072 -19.287  1.00  0.00     0.157 HD
HETATM   31 2H6A HMG A 101      -3.328  -8.865 -18.023  1.00  0.00     0.157 HD
HETATM   32  N7A HMG A 101      -4.578  -6.462 -18.089  1.00 54.86    -0.236 NA
HETATM   33  C8A HMG A 101      -5.277  -5.322 -18.400  1.00 54.86     0.214 A 
ENDBRANCH  13  22
ENDBRANCH   9  10
ENDBRANCH   8   9
ENDBRANCH   5   8
ENDBRANCH   4   5
ENDBRANCH   1   4
BRANCH   1  34
HETATM   34  O6A HMG A 101      -1.473  -4.918 -18.608  1.00 54.86    -0.289 OA
BRANCH  34  35
HETATM   35  CCP HMG A 101      -1.092  -5.921 -17.653  1.00 54.86     0.193 C 
BRANCH  35  36
HETATM   36  CBP HMG A 101      -1.410  -5.510 -16.183  1.00 54.86     0.009 C 
HETATM   37  CEP HMG A 101      -2.466  -4.358 -16.239  1.00 54.86     0.020 C 
HETATM   38  CDP HMG A 101      -0.110  -4.955 -15.536  1.00 54.86     0.020 C 
BRANCH  36  39
HETATM   39  CAP HMG A 101      -1.947  -6.774 -15.378  1.00 54.86     0.219 C 
BRANCH  39  40
HETATM   40  C9P HMG A 101      -0.869  -7.495 -14.555  1.00 54.86     0.247 C 
HETATM   41  N8P HMG A 101      -0.828  -7.265 -13.218  1.00 54.86    -0.358 N 
HETATM   42  H8P HMG A 101      -1.600  -6.781 -12.782  1.00  0.00     0.162 HD
HETATM   43  O9P HMG A 101      -0.099  -8.269 -15.145  1.00 54.86    -0.271 OA
BRANCH  41  44
HETATM   44  C7P HMG A 101       0.312  -7.704 -12.377  1.00 54.86     0.132 C 
BRANCH  44  45
HETATM   45  C6P HMG A 101       1.532  -6.773 -12.559  1.00 54.86     0.122 C 
BRANCH  45  46
HETATM   46  C5P HMG A 101       2.081  -6.237 -11.254  1.00 54.86     0.219 C 
HETATM   47  O5P HMG A 101       1.804  -5.084 -10.918  1.00 54.86    -0.274 OA
HETATM   48  N4P HMG A 101       2.862  -7.074 -10.544  1.00 54.86    -0.360 N 
HETATM   49  H4P HMG A 101       2.653  -8.062 -10.558  1.00  0.00     0.162 HD
BRANCH  48  50
HETATM   50  C3P HMG A 101       4.021  -6.600  -9.741  1.00 54.86     0.133 C 
BRANCH  50  51
HETATM   51  C2P HMG A 101       4.809  -7.804  -9.195  1.00 54.86     0.102 C 
BRANCH  51  52
HETATM   52  S1P HMG A 101       5.012  -9.076 -10.497  1.00 54.86    -0.091 SA
BRANCH  52  53
HETATM   53  C1  HMG A 101       6.524  -8.580 -11.410  1.00 54.86     0.188 C 
HETATM   54  O2  HMG A 101       7.612  -8.298 -10.837  1.00 54.86    -0.285 OA
BRANCH  53  55
HETATM   55  C2  HMG A 101       6.435  -8.515 -12.956  1.00 54.86     0.128 C 
BRANCH  55  56
HETATM   56  C3  HMG A 101       6.014  -7.162 -13.595  1.00 54.86     0.071 C 
HETATM   57  C6  HMG A 101       4.583  -7.217 -14.194  1.00 54.86     0.047 C 
BRANCH  56  58
HETATM   58  O7  HMG A 101       6.031  -6.159 -12.571  1.00 54.86    -0.389 OA
HETATM   59  H7  HMG A 101       5.776  -5.314 -12.947  1.00  0.00     0.210 HD
ENDBRANCH  56  58
BRANCH  56  60
HETATM   60  C4  HMG A 101       7.074  -6.789 -14.680  1.00 54.86     0.150 C 
BRANCH  60  61
HETATM   61  C5  HMG A 101       7.874  -7.937 -15.348  1.00 54.86     0.175 C 
HETATM   62  O4  HMG A 101       7.164  -8.580 -16.332  1.00 54.86    -0.648 OA
HETATM   63  O3  HMG A 101       9.022  -8.232 -15.030  1.00 54.86    -0.648 OA
ENDBRANCH  60  61
ENDBRANCH  56  60
ENDBRANCH  55  56
ENDBRANCH  53  55
ENDBRANCH  52  53
ENDBRANCH  51  52
ENDBRANCH  50  51
ENDBRANCH  48  50
ENDBRANCH  45  46
ENDBRANCH  44  45
ENDBRANCH  41  44
ENDBRANCH  39  40
BRANCH  39  64
HETATM   64  OAP HMG A 101      -2.556  -7.716 -16.286  1.00 54.86    -0.385 OA
HETATM   65 PHOA HMG A 101      -3.159  -8.285 -15.801  1.00  0.00     0.210 HD
ENDBRANCH  39  64
ENDBRANCH  36  39
ENDBRANCH  35  36
ENDBRANCH  34  35
ENDBRANCH   1  34
TORSDOF 27
                                                                                                                                                         
ENDMDL
