MODEL 1
REMARK VINA RESULT:    -6.992      0.000      0.000
REMARK INTER + INTRA:         -23.684
REMARK INTER:                 -19.868
REMARK INTRA:                  -3.816
REMARK UNBOUND:                -3.816
REMARK WARNING: 32 MAX_TORS EXCEEDED!!!
REMARK  35 active torsions:
REMARK  status: ('A' for Active; 'I' for Inactive)
REMARK    1  A    between atoms: C2_2  and  C3_3 
REMARK    2  A    between atoms: C3_3  and  C4_4 
REMARK    3  A    between atoms: C4_4  and  C5_5 
REMARK    4  A    between atoms: C5_5  and  C6_6 
REMARK    5  A    between atoms: C6_6  and  C7_7 
REMARK    6  A    between atoms: C7_7  and  C8_8 
REMARK    7  A    between atoms: C8_8  and  C9_9 
REMARK    8  A    between atoms: C9_9  and  C10_10 
REMARK    9  A    between atoms: C10_10  and  S1_12 
REMARK   10  A    between atoms: S1_12  and  C11_13 
REMARK   11  A    between atoms: C11_13  and  C12_14 
REMARK   12  A    between atoms: C12_14  and  N1_15 
REMARK       I    between atoms: N1_15  and  C13_16 
REMARK   13  A    between atoms: C13_16  and  C14_18 
REMARK   14  A    between atoms: C14_18  and  C15_19 
REMARK   15  A    between atoms: C15_19  and  N2_20 
REMARK       I    between atoms: N2_20  and  C16_21 
REMARK   16  A    between atoms: C16_21  and  C17_23 
REMARK   17  A    between atoms: C17_23  and  O4_24 
REMARK   18  A    between atoms: C17_23  and  C18_25 
REMARK   19  A    between atoms: C18_25  and  C21_28 
REMARK   20  A    between atoms: C21_28  and  O5_29 
REMARK   21  A    between atoms: O5_29  and  P1_30 
REMARK   22  A    between atoms: P1_30  and  O7_32 
REMARK   23  A    between atoms: P1_30  and  O8_33 
REMARK   24  A    between atoms: O8_33  and  P2_34 
REMARK   25  A    between atoms: P2_34  and  O10_36 
REMARK   26  A    between atoms: P2_34  and  O11_37 
REMARK   27  A    between atoms: O11_37  and  C22_38 
REMARK   28  A    between atoms: C22_38  and  C23_39 
REMARK   29  A    between atoms: C24_41  and  N3_42 
REMARK   30  A    between atoms: C27_46  and  N5_47 
REMARK   31  A    between atoms: C30_52  and  O13_53 
REMARK   32  A    between atoms: C31_54  and  O14_55 
REMARK   33  A    between atoms: O14_55  and  P3_56 
REMARK   34  A    between atoms: P3_56  and  O16_58 
REMARK   35  A    between atoms: P3_56  and  O17_59 
ROOT
ATOM      1  P1  UNK     1      -5.674  -6.090 -18.882  1.00  0.00     0.401 P 
ATOM      2  O6  UNK     1      -5.529  -6.332 -20.340  1.00  0.00    -0.631 OA
ENDROOT
BRANCH   1   3
ATOM      3  O5  UNK     1      -4.355  -6.372 -17.998  1.00  0.00    -0.296 OA
BRANCH   3   4
ATOM      4  C21 UNK     1      -3.097  -5.779 -18.365  1.00  0.00     0.192 C 
BRANCH   4   5
ATOM      5  C18 UNK     1      -2.320  -5.323 -17.096  1.00  0.00     0.009 C 
ATOM      6  C19 UNK     1      -2.792  -3.899 -16.682  1.00  0.00     0.020 C 
ATOM      7  C20 UNK     1      -0.798  -5.278 -17.417  1.00  0.00     0.020 C 
BRANCH   5   8
ATOM      8  C17 UNK     1      -2.587  -6.371 -15.964  1.00  0.00     0.219 C 
BRANCH   8   9
ATOM      9  C16 UNK     1      -1.513  -7.470 -15.851  1.00  0.00     0.247 C 
ATOM     10  N2  UNK     1      -0.489  -7.197 -14.957  1.00  0.00    -0.358 N 
ATOM     11  H33 UNK     1      -0.523  -6.326 -14.443  1.00  0.00     0.162 HD
ATOM     12  O3  UNK     1      -1.531  -8.484 -16.528  1.00  0.00    -0.271 OA
BRANCH  10  13
ATOM     13  C15 UNK     1       0.648  -8.101 -14.741  1.00  0.00     0.132 C 
BRANCH  13  14
ATOM     14  C14 UNK     1       1.861  -7.362 -14.137  1.00  0.00     0.122 C 
BRANCH  14  15
ATOM     15  C13 UNK     1       1.601  -6.826 -12.725  1.00  0.00     0.219 C 
ATOM     16  N1  UNK     1       2.495  -5.855 -12.312  1.00  0.00    -0.360 N 
ATOM     17  H28 UNK     1       3.234  -5.580 -12.947  1.00  0.00     0.162 HD
ATOM     18  O2  UNK     1       0.682  -7.211 -12.023  1.00  0.00    -0.274 OA
BRANCH  16  19
ATOM     19  C12 UNK     1       2.416  -5.197 -11.003  1.00  0.00     0.133 C 
BRANCH  19  20
ATOM     20  C11 UNK     1       3.703  -5.404 -10.185  1.00  0.00     0.102 C 
BRANCH  20  21
ATOM     21  S1  UNK     1       3.894  -7.173  -9.706  1.00  0.00    -0.091 SA
BRANCH  21  22
ATOM     22  C10 UNK     1       5.089  -7.724 -10.942  1.00  0.00     0.186 C 
ATOM     23  O1  UNK     1       5.134  -7.270 -12.072  1.00  0.00    -0.286 OA
BRANCH  22  24
ATOM     24  C9  UNK     1       6.034  -8.810 -10.417  1.00  0.00     0.091 C 
BRANCH  24  25
ATOM     25  C8  UNK     1       6.179 -10.015 -11.375  1.00  0.00     0.008 C 
BRANCH  25  26
ATOM     26  C7  UNK     1       7.452  -9.918 -12.246  1.00  0.00     0.000 C 
BRANCH  26  27
ATOM     27  C6  UNK     1       7.118  -9.654 -13.732  1.00  0.00     0.000 C 
BRANCH  27  28
ATOM     28  C5  UNK     1       6.613 -10.926 -14.448  1.00  0.00     0.000 C 
BRANCH  28  29
ATOM     29  C4  UNK     1       7.478 -12.162 -14.116  1.00  0.00     0.000 C 
BRANCH  29  30
ATOM     30  C3  UNK     1       6.661 -13.275 -13.422  1.00  0.00    -0.000 C 
BRANCH  30  31
ATOM     31  C2  UNK     1       7.366 -13.807 -12.155  1.00  0.00    -0.005 C 
ATOM     32  C1  UNK     1       6.486 -14.806 -11.377  1.00  0.00     0.005 C 
ENDBRANCH  30  31
ENDBRANCH  29  30
ENDBRANCH  28  29
ENDBRANCH  27  28
ENDBRANCH  26  27
ENDBRANCH  25  26
ENDBRANCH  24  25
ENDBRANCH  22  24
ENDBRANCH  21  22
ENDBRANCH  20  21
ENDBRANCH  19  20
ENDBRANCH  16  19
ENDBRANCH  14  15
ENDBRANCH  13  14
ENDBRANCH  10  13
ENDBRANCH   8   9
BRANCH   8  33
ATOM     33  O4  UNK     1      -2.731  -5.740 -14.686  1.00  0.00    -0.385 OA
ATOM     34  H35 UNK     1      -3.207  -6.370 -14.113  1.00  0.00     0.210 HD
ENDBRANCH   8  33
ENDBRANCH   5   8
ENDBRANCH   4   5
ENDBRANCH   3   4
ENDBRANCH   1   3
BRANCH   1  35
ATOM     35  O7  UNK     1      -6.763  -6.972 -18.091  1.00  0.00    -0.307 OA
ATOM     36  H44 UNK     1      -6.755  -6.711 -17.155  1.00  0.00     0.222 HD
ENDBRANCH   1  35
BRANCH   1  37
ATOM     37  O8  UNK     1      -6.031  -4.585 -18.436  1.00  0.00    -0.195 OA
BRANCH  37  38
ATOM     38  P2  UNK     1      -7.369  -3.773 -18.809  1.00  0.00     0.401 P 
ATOM     39  O9  UNK     1      -7.516  -3.404 -20.240  1.00  0.00    -0.631 OA
BRANCH  38  40
ATOM     40  O10 UNK     1      -8.493  -4.749 -18.198  1.00  0.00    -0.307 OA
ATOM     41  H45 UNK     1      -8.765  -4.409 -17.331  1.00  0.00     0.222 HD
ENDBRANCH  38  40
BRANCH  38  42
ATOM     42  O11 UNK     1      -7.336  -2.550 -17.751  1.00  0.00    -0.294 OA
BRANCH  42  43
ATOM     43  C22 UNK     1      -7.574  -1.179 -18.129  1.00  0.00     0.215 C 
BRANCH  43  44
ATOM     44  C23 UNK     1      -7.291  -0.195 -16.963  1.00  0.00     0.180 C 
ATOM     45  O12 UNK     1      -5.903  -0.312 -16.581  1.00  0.00    -0.353 OA
ATOM     46  C24 UNK     1      -5.068   0.627 -17.294  1.00  0.00     0.262 C 
ATOM     47  C30 UNK     1      -6.041   1.584 -18.018  1.00  0.00     0.199 C 
ATOM     48  C31 UNK     1      -7.416   1.280 -17.397  1.00  0.00     0.197 C 
BRANCH  46  49
ATOM     49  N3  UNK     1      -4.164  -0.096 -18.198  1.00  0.00    -0.294 N 
ATOM     50  C25 UNK     1      -4.302  -1.349 -18.780  1.00  0.00     0.214 A 
ATOM     51  N4  UNK     1      -3.250  -1.773 -19.570  1.00  0.00    -0.236 NA
ATOM     52  C26 UNK     1      -2.426  -0.703 -19.439  1.00  0.00     0.149 A 
ATOM     53  C27 UNK     1      -1.157  -0.530 -20.023  1.00  0.00     0.155 A 
ATOM     54  C29 UNK     1      -2.927   0.313 -18.631  1.00  0.00     0.167 A 
ATOM     55  N6  UNK     1      -0.452   0.597 -19.795  1.00  0.00    -0.222 NA
ATOM     56  C28 UNK     1      -1.025   1.527 -18.995  1.00  0.00     0.237 A 
ATOM     57  N7  UNK     1      -2.235   1.447 -18.397  1.00  0.00    -0.222 NA
BRANCH  53  58
ATOM     58  N5  UNK     1      -0.569  -1.480 -20.844  1.00  0.00    -0.382 N 
ATOM     59  H49 UNK     1       0.308  -1.896 -20.557  1.00  0.00     0.157 HD
ATOM     60  H50 UNK     1      -0.833  -1.510 -21.820  1.00  0.00     0.157 HD
ENDBRANCH  53  58
ENDBRANCH  46  49
BRANCH  47  61
ATOM     61  O13 UNK     1      -5.660   2.958 -17.900  1.00  0.00    -0.388 OA
ATOM     62  H52 UNK     1      -6.161   3.458 -18.571  1.00  0.00     0.210 HD
ENDBRANCH  47  61
BRANCH  48  63
ATOM     63  O14 UNK     1      -7.638   2.107 -16.234  1.00  0.00    -0.286 OA
BRANCH  63  64
ATOM     64  P3  UNK     1      -8.827   3.197 -16.188  1.00  0.00     0.391 P 
ATOM     65  O15 UNK     1     -10.108   2.860 -16.857  1.00  0.00    -0.632 OA
BRANCH  64  66
ATOM     66  O16 UNK     1      -8.942   3.500 -14.615  1.00  0.00    -0.307 OA
ATOM     67  H53 UNK     1      -8.376   2.875 -14.134  1.00  0.00     0.222 HD
ENDBRANCH  64  66
BRANCH  64  68
ATOM     68  O17 UNK     1      -8.073   4.516 -16.704  1.00  0.00    -0.307 OA
ATOM     69  H54 UNK     1      -8.025   4.480 -17.674  1.00  0.00     0.222 HD
ENDBRANCH  64  68
ENDBRANCH  63  64
ENDBRANCH  48  63
ENDBRANCH  43  44
ENDBRANCH  42  43
ENDBRANCH  38  42
ENDBRANCH  37  38
ENDBRANCH   1  37
TORSDOF 35
                                                                                                                                                                                      
ENDMDL
MODEL 2
REMARK VINA RESULT:    -6.845      1.836      3.441
REMARK INTER + INTRA:         -23.266
REMARK INTER:                 -19.769
REMARK INTRA:                  -3.497
REMARK UNBOUND:                -3.816
REMARK WARNING: 32 MAX_TORS EXCEEDED!!!
REMARK  35 active torsions:
REMARK  status: ('A' for Active; 'I' for Inactive)
REMARK    1  A    between atoms: C2_2  and  C3_3 
REMARK    2  A    between atoms: C3_3  and  C4_4 
REMARK    3  A    between atoms: C4_4  and  C5_5 
REMARK    4  A    between atoms: C5_5  and  C6_6 
REMARK    5  A    between atoms: C6_6  and  C7_7 
REMARK    6  A    between atoms: C7_7  and  C8_8 
REMARK    7  A    between atoms: C8_8  and  C9_9 
REMARK    8  A    between atoms: C9_9  and  C10_10 
REMARK    9  A    between atoms: C10_10  and  S1_12 
REMARK   10  A    between atoms: S1_12  and  C11_13 
REMARK   11  A    between atoms: C11_13  and  C12_14 
REMARK   12  A    between atoms: C12_14  and  N1_15 
REMARK       I    between atoms: N1_15  and  C13_16 
REMARK   13  A    between atoms: C13_16  and  C14_18 
REMARK   14  A    between atoms: C14_18  and  C15_19 
REMARK   15  A    between atoms: C15_19  and  N2_20 
REMARK       I    between atoms: N2_20  and  C16_21 
REMARK   16  A    between atoms: C16_21  and  C17_23 
REMARK   17  A    between atoms: C17_23  and  O4_24 
REMARK   18  A    between atoms: C17_23  and  C18_25 
REMARK   19  A    between atoms: C18_25  and  C21_28 
REMARK   20  A    between atoms: C21_28  and  O5_29 
REMARK   21  A    between atoms: O5_29  and  P1_30 
REMARK   22  A    between atoms: P1_30  and  O7_32 
REMARK   23  A    between atoms: P1_30  and  O8_33 
REMARK   24  A    between atoms: O8_33  and  P2_34 
REMARK   25  A    between atoms: P2_34  and  O10_36 
REMARK   26  A    between atoms: P2_34  and  O11_37 
REMARK   27  A    between atoms: O11_37  and  C22_38 
REMARK   28  A    between atoms: C22_38  and  C23_39 
REMARK   29  A    between atoms: C24_41  and  N3_42 
REMARK   30  A    between atoms: C27_46  and  N5_47 
REMARK   31  A    between atoms: C30_52  and  O13_53 
REMARK   32  A    between atoms: C31_54  and  O14_55 
REMARK   33  A    between atoms: O14_55  and  P3_56 
REMARK   34  A    between atoms: P3_56  and  O16_58 
REMARK   35  A    between atoms: P3_56  and  O17_59 
ROOT
ATOM      1  P1  UNK     1      -5.424  -5.869 -18.742  1.00  0.00     0.401 P 
ATOM      2  O6  UNK     1      -4.921  -5.944 -20.138  1.00  0.00    -0.631 OA
ENDROOT
BRANCH   1   3
ATOM      3  O5  UNK     1      -4.330  -6.171 -17.595  1.00  0.00    -0.296 OA
BRANCH   3   4
ATOM      4  C21 UNK     1      -3.002  -6.591 -17.953  1.00  0.00     0.192 C 
BRANCH   4   5
ATOM      5  C18 UNK     1      -1.978  -6.135 -16.873  1.00  0.00     0.009 C 
ATOM      6  C19 UNK     1      -2.647  -5.094 -15.929  1.00  0.00     0.020 C 
ATOM      7  C20 UNK     1      -0.758  -5.472 -17.573  1.00  0.00     0.020 C 
BRANCH   5   8
ATOM      8  C17 UNK     1      -1.508  -7.406 -16.088  1.00  0.00     0.219 C 
BRANCH   8   9
ATOM      9  C16 UNK     1      -0.985  -7.116 -14.668  1.00  0.00     0.247 C 
ATOM     10  N2  UNK     1       0.379  -6.888 -14.582  1.00  0.00    -0.358 N 
ATOM     11  H33 UNK     1       0.923  -6.911 -15.435  1.00  0.00     0.162 HD
ATOM     12  O3  UNK     1      -1.704  -7.132 -13.682  1.00  0.00    -0.271 OA
BRANCH  10  13
ATOM     13  C15 UNK     1       1.072  -6.637 -13.312  1.00  0.00     0.132 C 
BRANCH  13  14
ATOM     14  C14 UNK     1       2.285  -7.573 -13.124  1.00  0.00     0.122 C 
BRANCH  14  15
ATOM     15  C13 UNK     1       3.277  -7.517 -14.291  1.00  0.00     0.219 C 
ATOM     16  N1  UNK     1       4.586  -7.278 -13.913  1.00  0.00    -0.360 N 
ATOM     17  H28 UNK     1       4.787  -7.157 -12.928  1.00  0.00     0.162 HD
ATOM     18  O2  UNK     1       2.951  -7.678 -15.454  1.00  0.00    -0.274 OA
BRANCH  16  19
ATOM     19  C12 UNK     1       5.696  -7.205 -14.870  1.00  0.00     0.133 C 
BRANCH  19  20
ATOM     20  C11 UNK     1       6.839  -8.160 -14.486  1.00  0.00     0.102 C 
BRANCH  20  21
ATOM     21  S1  UNK     1       6.446  -9.887 -14.993  1.00  0.00    -0.091 SA
BRANCH  21  22
ATOM     22  C10 UNK     1       7.142 -10.806 -13.604  1.00  0.00     0.186 C 
ATOM     23  O1  UNK     1       6.917 -11.989 -13.409  1.00  0.00    -0.286 OA
BRANCH  22  24
ATOM     24  C9  UNK     1       8.039  -9.947 -12.708  1.00  0.00     0.091 C 
BRANCH  24  25
ATOM     25  C8  UNK     1       7.490  -9.771 -11.273  1.00  0.00     0.008 C 
BRANCH  25  26
ATOM     26  C7  UNK     1       5.954  -9.592 -11.255  1.00  0.00     0.000 C 
BRANCH  26  27
ATOM     27  C6  UNK     1       5.397  -9.520  -9.816  1.00  0.00     0.000 C 
BRANCH  27  28
ATOM     28  C5  UNK     1       4.023  -8.817  -9.759  1.00  0.00     0.000 C 
BRANCH  28  29
ATOM     29  C4  UNK     1       4.159  -7.288  -9.582  1.00  0.00     0.000 C 
BRANCH  29  30
ATOM     30  C3  UNK     1       2.906  -6.531 -10.075  1.00  0.00    -0.000 C 
BRANCH  30  31
ATOM     31  C2  UNK     1       3.216  -5.057 -10.416  1.00  0.00    -0.005 C 
ATOM     32  C1  UNK     1       4.341  -4.927 -11.462  1.00  0.00     0.005 C 
ENDBRANCH  30  31
ENDBRANCH  29  30
ENDBRANCH  28  29
ENDBRANCH  27  28
ENDBRANCH  26  27
ENDBRANCH  25  26
ENDBRANCH  24  25
ENDBRANCH  22  24
ENDBRANCH  21  22
ENDBRANCH  20  21
ENDBRANCH  19  20
ENDBRANCH  16  19
ENDBRANCH  14  15
ENDBRANCH  13  14
ENDBRANCH  10  13
ENDBRANCH   8   9
BRANCH   8  33
ATOM     33  O4  UNK     1      -2.549  -8.386 -16.001  1.00  0.00    -0.385 OA
ATOM     34  H35 UNK     1      -2.491  -8.931 -16.807  1.00  0.00     0.210 HD
ENDBRANCH   8  33
ENDBRANCH   5   8
ENDBRANCH   4   5
ENDBRANCH   3   4
ENDBRANCH   1   3
BRANCH   1  35
ATOM     35  O7  UNK     1      -6.594  -6.891 -18.322  1.00  0.00    -0.307 OA
ATOM     36  H44 UNK     1      -7.267  -6.899 -19.023  1.00  0.00     0.222 HD
ENDBRANCH   1  35
BRANCH   1  37
ATOM     37  O8  UNK     1      -5.994  -4.443 -18.260  1.00  0.00    -0.195 OA
BRANCH  37  38
ATOM     38  P2  UNK     1      -7.361  -3.750 -18.752  1.00  0.00     0.401 P 
ATOM     39  O9  UNK     1      -7.368  -3.277 -20.158  1.00  0.00    -0.631 OA
BRANCH  38  40
ATOM     40  O10 UNK     1      -8.431  -4.889 -18.369  1.00  0.00    -0.307 OA
ATOM     41  H45 UNK     1      -8.875  -5.186 -19.180  1.00  0.00     0.222 HD
ENDBRANCH  38  40
BRANCH  38  42
ATOM     42  O11 UNK     1      -7.605  -2.627 -17.613  1.00  0.00    -0.294 OA
BRANCH  42  43
ATOM     43  C22 UNK     1      -7.746  -1.223 -17.914  1.00  0.00     0.215 C 
BRANCH  43  44
ATOM     44  C23 UNK     1      -7.298  -0.326 -16.730  1.00  0.00     0.180 C 
ATOM     45  O12 UNK     1      -5.857  -0.233 -16.733  1.00  0.00    -0.353 OA
ATOM     46  C24 UNK     1      -5.391   0.904 -17.493  1.00  0.00     0.262 C 
ATOM     47  C30 UNK     1      -6.652   1.742 -17.802  1.00  0.00     0.199 C 
ATOM     48  C31 UNK     1      -7.746   1.140 -16.903  1.00  0.00     0.197 C 
BRANCH  46  49
ATOM     49  N3  UNK     1      -4.675   0.445 -18.691  1.00  0.00    -0.294 N 
ATOM     50  C25 UNK     1      -4.582   1.026 -19.949  1.00  0.00     0.214 A 
ATOM     51  N4  UNK     1      -3.850   0.325 -20.889  1.00  0.00    -0.236 NA
ATOM     52  C26 UNK     1      -3.494  -0.749 -20.141  1.00  0.00     0.149 A 
ATOM     53  C27 UNK     1      -2.719  -1.851 -20.551  1.00  0.00     0.155 A 
ATOM     54  C29 UNK     1      -3.965  -0.721 -18.833  1.00  0.00     0.167 A 
ATOM     55  N6  UNK     1      -2.449  -2.851 -19.686  1.00  0.00    -0.222 NA
ATOM     56  C28 UNK     1      -2.953  -2.732 -18.435  1.00  0.00     0.237 A 
ATOM     57  N7  UNK     1      -3.701  -1.712 -17.957  1.00  0.00    -0.222 NA
BRANCH  53  58
ATOM     58  N5  UNK     1      -2.201  -1.975 -21.831  1.00  0.00    -0.382 N 
ATOM     59  H49 UNK     1      -1.866  -2.880 -22.136  1.00  0.00     0.157 HD
ATOM     60  H50 UNK     1      -1.877  -1.143 -22.308  1.00  0.00     0.157 HD
ENDBRANCH  53  58
ENDBRANCH  46  49
BRANCH  47  61
ATOM     61  O13 UNK     1      -6.454   3.143 -17.590  1.00  0.00    -0.388 OA
ATOM     62  H52 UNK     1      -6.008   3.497 -18.381  1.00  0.00     0.210 HD
ENDBRANCH  47  61
BRANCH  48  63
ATOM     63  O14 UNK     1      -7.758   1.796 -15.617  1.00  0.00    -0.286 OA
BRANCH  63  64
ATOM     64  P3  UNK     1      -8.877   2.895 -15.238  1.00  0.00     0.391 P 
ATOM     65  O15 UNK     1     -10.184   2.830 -15.938  1.00  0.00    -0.632 OA
BRANCH  64  66
ATOM     66  O16 UNK     1      -8.955   2.758 -13.641  1.00  0.00    -0.307 OA
ATOM     67  H53 UNK     1      -8.291   2.114 -13.349  1.00  0.00     0.222 HD
ENDBRANCH  64  66
BRANCH  64  68
ATOM     68  O17 UNK     1      -8.049   4.261 -15.393  1.00  0.00    -0.307 OA
ATOM     69  H54 UNK     1      -7.922   4.642 -14.507  1.00  0.00     0.222 HD
ENDBRANCH  64  68
ENDBRANCH  63  64
ENDBRANCH  48  63
ENDBRANCH  43  44
ENDBRANCH  42  43
ENDBRANCH  38  42
ENDBRANCH  37  38
ENDBRANCH   1  37
TORSDOF 35
                                                                                                                                                                                      
ENDMDL
MODEL 3
REMARK VINA RESULT:    -6.830      1.812      2.596
REMARK INTER + INTRA:         -23.223
REMARK INTER:                 -19.179
REMARK INTRA:                  -4.044
REMARK UNBOUND:                -3.816
REMARK WARNING: 32 MAX_TORS EXCEEDED!!!
REMARK  35 active torsions:
REMARK  status: ('A' for Active; 'I' for Inactive)
REMARK    1  A    between atoms: C2_2  and  C3_3 
REMARK    2  A    between atoms: C3_3  and  C4_4 
REMARK    3  A    between atoms: C4_4  and  C5_5 
REMARK    4  A    between atoms: C5_5  and  C6_6 
REMARK    5  A    between atoms: C6_6  and  C7_7 
REMARK    6  A    between atoms: C7_7  and  C8_8 
REMARK    7  A    between atoms: C8_8  and  C9_9 
REMARK    8  A    between atoms: C9_9  and  C10_10 
REMARK    9  A    between atoms: C10_10  and  S1_12 
REMARK   10  A    between atoms: S1_12  and  C11_13 
REMARK   11  A    between atoms: C11_13  and  C12_14 
REMARK   12  A    between atoms: C12_14  and  N1_15 
REMARK       I    between atoms: N1_15  and  C13_16 
REMARK   13  A    between atoms: C13_16  and  C14_18 
REMARK   14  A    between atoms: C14_18  and  C15_19 
REMARK   15  A    between atoms: C15_19  and  N2_20 
REMARK       I    between atoms: N2_20  and  C16_21 
REMARK   16  A    between atoms: C16_21  and  C17_23 
REMARK   17  A    between atoms: C17_23  and  O4_24 
REMARK   18  A    between atoms: C17_23  and  C18_25 
REMARK   19  A    between atoms: C18_25  and  C21_28 
REMARK   20  A    between atoms: C21_28  and  O5_29 
REMARK   21  A    between atoms: O5_29  and  P1_30 
REMARK   22  A    between atoms: P1_30  and  O7_32 
REMARK   23  A    between atoms: P1_30  and  O8_33 
REMARK   24  A    between atoms: O8_33  and  P2_34 
REMARK   25  A    between atoms: P2_34  and  O10_36 
REMARK   26  A    between atoms: P2_34  and  O11_37 
REMARK   27  A    between atoms: O11_37  and  C22_38 
REMARK   28  A    between atoms: C22_38  and  C23_39 
REMARK   29  A    between atoms: C24_41  and  N3_42 
REMARK   30  A    between atoms: C27_46  and  N5_47 
REMARK   31  A    between atoms: C30_52  and  O13_53 
REMARK   32  A    between atoms: C31_54  and  O14_55 
REMARK   33  A    between atoms: O14_55  and  P3_56 
REMARK   34  A    between atoms: P3_56  and  O16_58 
REMARK   35  A    between atoms: P3_56  and  O17_59 
ROOT
ATOM      1  P1  UNK     1      -5.880  -5.870 -18.912  1.00  0.00     0.401 P 
ATOM      2  O6  UNK     1      -5.780  -6.127 -20.372  1.00  0.00    -0.631 OA
ENDROOT
BRANCH   1   3
ATOM      3  O5  UNK     1      -4.523  -6.112 -18.073  1.00  0.00    -0.296 OA
BRANCH   3   4
ATOM      4  C21 UNK     1      -3.282  -5.542 -18.522  1.00  0.00     0.192 C 
BRANCH   4   5
ATOM      5  C18 UNK     1      -2.400  -5.131 -17.307  1.00  0.00     0.009 C 
ATOM      6  C19 UNK     1      -2.742  -3.672 -16.887  1.00  0.00     0.020 C 
ATOM      7  C20 UNK     1      -0.901  -5.202 -17.716  1.00  0.00     0.020 C 
BRANCH   5   8
ATOM      8  C17 UNK     1      -2.677  -6.145 -16.146  1.00  0.00     0.219 C 
BRANCH   8   9
ATOM      9  C16 UNK     1      -1.707  -7.341 -16.103  1.00  0.00     0.247 C 
ATOM     10  N2  UNK     1      -0.656  -7.209 -15.210  1.00  0.00    -0.358 N 
ATOM     11  H33 UNK     1      -0.605  -6.367 -14.651  1.00  0.00     0.162 HD
ATOM     12  O3  UNK     1      -1.823  -8.313 -16.832  1.00  0.00    -0.271 OA
BRANCH  10  13
ATOM     13  C15 UNK     1       0.396  -8.222 -15.055  1.00  0.00     0.132 C 
BRANCH  13  14
ATOM     14  C14 UNK     1       1.600  -7.682 -14.254  1.00  0.00     0.122 C 
BRANCH  14  15
ATOM     15  C13 UNK     1       1.268  -7.390 -12.787  1.00  0.00     0.219 C 
ATOM     16  N1  UNK     1       2.371  -7.114 -11.999  1.00  0.00    -0.360 N 
ATOM     17  H28 UNK     1       3.287  -7.129 -12.431  1.00  0.00     0.162 HD
ATOM     18  O2  UNK     1       0.132  -7.389 -12.346  1.00  0.00    -0.274 OA
BRANCH  16  19
ATOM     19  C12 UNK     1       2.276  -6.791 -10.571  1.00  0.00     0.133 C 
BRANCH  19  20
ATOM     20  C11 UNK     1       3.597  -7.073  -9.836  1.00  0.00     0.102 C 
BRANCH  20  21
ATOM     21  S1  UNK     1       4.021  -8.864  -9.920  1.00  0.00    -0.091 SA
BRANCH  21  22
ATOM     22  C10 UNK     1       5.442  -8.816 -11.033  1.00  0.00     0.186 C 
ATOM     23  O1  UNK     1       5.495  -8.093 -12.013  1.00  0.00    -0.286 OA
BRANCH  22  24
ATOM     24  C9  UNK     1       6.564  -9.771 -10.612  1.00  0.00     0.091 C 
BRANCH  24  25
ATOM     25  C8  UNK     1       7.731  -9.066  -9.882  1.00  0.00     0.008 C 
BRANCH  25  26
ATOM     26  C7  UNK     1       7.642  -9.229  -8.348  1.00  0.00     0.000 C 
BRANCH  26  27
ATOM     27  C6  UNK     1       6.889  -8.054  -7.684  1.00  0.00     0.000 C 
BRANCH  27  28
ATOM     28  C5  UNK     1       5.931  -8.533  -6.571  1.00  0.00     0.000 C 
BRANCH  28  29
ATOM     29  C4  UNK     1       6.198 -10.000  -6.166  1.00  0.00     0.000 C 
BRANCH  29  30
ATOM     30  C3  UNK     1       4.925 -10.870  -6.259  1.00  0.00    -0.000 C 
BRANCH  30  31
ATOM     31  C2  UNK     1       4.890 -11.708  -7.556  1.00  0.00    -0.005 C 
ATOM     32  C1  UNK     1       3.455 -12.116  -7.945  1.00  0.00     0.005 C 
ENDBRANCH  30  31
ENDBRANCH  29  30
ENDBRANCH  28  29
ENDBRANCH  27  28
ENDBRANCH  26  27
ENDBRANCH  25  26
ENDBRANCH  24  25
ENDBRANCH  22  24
ENDBRANCH  21  22
ENDBRANCH  20  21
ENDBRANCH  19  20
ENDBRANCH  16  19
ENDBRANCH  14  15
ENDBRANCH  13  14
ENDBRANCH  10  13
ENDBRANCH   8   9
BRANCH   8  33
ATOM     33  O4  UNK     1      -2.662  -5.498 -14.868  1.00  0.00    -0.385 OA
ATOM     34  H35 UNK     1      -1.729  -5.296 -14.666  1.00  0.00     0.210 HD
ENDBRANCH   8  33
ENDBRANCH   5   8
ENDBRANCH   4   5
ENDBRANCH   3   4
ENDBRANCH   1   3
BRANCH   1  35
ATOM     35  O7  UNK     1      -6.920  -6.766 -18.073  1.00  0.00    -0.307 OA
ATOM     36  H44 UNK     1      -6.569  -7.670 -18.007  1.00  0.00     0.222 HD
ENDBRANCH   1  35
BRANCH   1  37
ATOM     37  O8  UNK     1      -6.253  -4.368 -18.471  1.00  0.00    -0.195 OA
BRANCH  37  38
ATOM     38  P2  UNK     1      -7.631  -3.598 -18.788  1.00  0.00     0.401 P 
ATOM     39  O9  UNK     1      -7.745  -3.025 -20.152  1.00  0.00    -0.631 OA
BRANCH  38  40
ATOM     40  O10 UNK     1      -8.705  -4.727 -18.388  1.00  0.00    -0.307 OA
ATOM     41  H45 UNK     1      -9.411  -4.737 -19.054  1.00  0.00     0.222 HD
ENDBRANCH  38  40
BRANCH  38  42
ATOM     42  O11 UNK     1      -7.730  -2.552 -17.558  1.00  0.00    -0.294 OA
BRANCH  42  43
ATOM     43  C22 UNK     1      -8.178  -1.190 -17.721  1.00  0.00     0.215 C 
BRANCH  43  44
ATOM     44  C23 UNK     1      -7.667  -0.269 -16.582  1.00  0.00     0.180 C 
ATOM     45  O12 UNK     1      -6.223  -0.306 -16.564  1.00  0.00    -0.353 OA
ATOM     46  C24 UNK     1      -5.647   0.738 -17.379  1.00  0.00     0.262 C 
ATOM     47  C30 UNK     1      -6.823   1.666 -17.759  1.00  0.00     0.199 C 
ATOM     48  C31 UNK     1      -7.979   1.219 -16.847  1.00  0.00     0.197 C 
BRANCH  46  49
ATOM     49  N3  UNK     1      -4.960   0.148 -18.535  1.00  0.00    -0.294 N 
ATOM     50  C25 UNK     1      -4.681  -1.183 -18.821  1.00  0.00     0.214 A 
ATOM     51  N4  UNK     1      -3.982  -1.420 -19.989  1.00  0.00    -0.236 NA
ATOM     52  C26 UNK     1      -3.826  -0.144 -20.421  1.00  0.00     0.149 A 
ATOM     53  C27 UNK     1      -3.171   0.284 -21.592  1.00  0.00     0.155 A 
ATOM     54  C29 UNK     1      -4.387   0.818 -19.587  1.00  0.00     0.167 A 
ATOM     55  N6  UNK     1      -3.096   1.598 -21.886  1.00  0.00    -0.222 NA
ATOM     56  C28 UNK     1      -3.673   2.456 -21.013  1.00  0.00     0.237 A 
ATOM     57  N7  UNK     1      -4.321   2.135 -19.870  1.00  0.00    -0.222 NA
BRANCH  53  58
ATOM     58  N5  UNK     1      -2.581  -0.593 -22.489  1.00  0.00    -0.382 N 
ATOM     59  H49 UNK     1      -2.890  -1.556 -22.503  1.00  0.00     0.157 HD
ATOM     60  H50 UNK     1      -1.673  -0.361 -22.871  1.00  0.00     0.157 HD
ENDBRANCH  53  58
ENDBRANCH  46  49
BRANCH  47  61
ATOM     61  O13 UNK     1      -6.502   3.054 -17.624  1.00  0.00    -0.388 OA
ATOM     62  H52 UNK     1      -7.128   3.553 -18.180  1.00  0.00     0.210 HD
ENDBRANCH  47  61
BRANCH  48  63
ATOM     63  O14 UNK     1      -7.948   1.947 -15.601  1.00  0.00    -0.286 OA
BRANCH  63  64
ATOM     64  P3  UNK     1      -8.971   3.160 -15.305  1.00  0.00     0.391 P 
ATOM     65  O15 UNK     1     -10.256   3.184 -16.045  1.00  0.00    -0.632 OA
BRANCH  64  66
ATOM     66  O16 UNK     1      -9.109   3.100 -13.707  1.00  0.00    -0.307 OA
ATOM     67  H53 UNK     1      -9.014   3.998 -13.351  1.00  0.00     0.222 HD
ENDBRANCH  64  66
BRANCH  64  68
ATOM     68  O17 UNK     1      -8.015   4.436 -15.486  1.00  0.00    -0.307 OA
ATOM     69  H54 UNK     1      -7.379   4.448 -14.750  1.00  0.00     0.222 HD
ENDBRANCH  64  68
ENDBRANCH  63  64
ENDBRANCH  48  63
ENDBRANCH  43  44
ENDBRANCH  42  43
ENDBRANCH  38  42
ENDBRANCH  37  38
ENDBRANCH   1  37
TORSDOF 35
                                                                                                                                                                                      
ENDMDL
MODEL 4
REMARK VINA RESULT:    -6.807      2.072      2.931
REMARK INTER + INTRA:         -23.157
REMARK INTER:                 -19.159
REMARK INTRA:                  -3.998
REMARK UNBOUND:                -3.816
REMARK WARNING: 32 MAX_TORS EXCEEDED!!!
REMARK  35 active torsions:
REMARK  status: ('A' for Active; 'I' for Inactive)
REMARK    1  A    between atoms: C2_2  and  C3_3 
REMARK    2  A    between atoms: C3_3  and  C4_4 
REMARK    3  A    between atoms: C4_4  and  C5_5 
REMARK    4  A    between atoms: C5_5  and  C6_6 
REMARK    5  A    between atoms: C6_6  and  C7_7 
REMARK    6  A    between atoms: C7_7  and  C8_8 
REMARK    7  A    between atoms: C8_8  and  C9_9 
REMARK    8  A    between atoms: C9_9  and  C10_10 
REMARK    9  A    between atoms: C10_10  and  S1_12 
REMARK   10  A    between atoms: S1_12  and  C11_13 
REMARK   11  A    between atoms: C11_13  and  C12_14 
REMARK   12  A    between atoms: C12_14  and  N1_15 
REMARK       I    between atoms: N1_15  and  C13_16 
REMARK   13  A    between atoms: C13_16  and  C14_18 
REMARK   14  A    between atoms: C14_18  and  C15_19 
REMARK   15  A    between atoms: C15_19  and  N2_20 
REMARK       I    between atoms: N2_20  and  C16_21 
REMARK   16  A    between atoms: C16_21  and  C17_23 
REMARK   17  A    between atoms: C17_23  and  O4_24 
REMARK   18  A    between atoms: C17_23  and  C18_25 
REMARK   19  A    between atoms: C18_25  and  C21_28 
REMARK   20  A    between atoms: C21_28  and  O5_29 
REMARK   21  A    between atoms: O5_29  and  P1_30 
REMARK   22  A    between atoms: P1_30  and  O7_32 
REMARK   23  A    between atoms: P1_30  and  O8_33 
REMARK   24  A    between atoms: O8_33  and  P2_34 
REMARK   25  A    between atoms: P2_34  and  O10_36 
REMARK   26  A    between atoms: P2_34  and  O11_37 
REMARK   27  A    between atoms: O11_37  and  C22_38 
REMARK   28  A    between atoms: C22_38  and  C23_39 
REMARK   29  A    between atoms: C24_41  and  N3_42 
REMARK   30  A    between atoms: C27_46  and  N5_47 
REMARK   31  A    between atoms: C30_52  and  O13_53 
REMARK   32  A    between atoms: C31_54  and  O14_55 
REMARK   33  A    between atoms: O14_55  and  P3_56 
REMARK   34  A    between atoms: P3_56  and  O16_58 
REMARK   35  A    between atoms: P3_56  and  O17_59 
ROOT
ATOM      1  P1  UNK     1      -5.389  -5.493 -18.674  1.00  0.00     0.401 P 
ATOM      2  O6  UNK     1      -4.800  -5.406 -20.035  1.00  0.00    -0.631 OA
ENDROOT
BRANCH   1   3
ATOM      3  O5  UNK     1      -4.347  -5.831 -17.490  1.00  0.00    -0.296 OA
BRANCH   3   4
ATOM      4  C21 UNK     1      -3.120  -6.523 -17.779  1.00  0.00     0.192 C 
BRANCH   4   5
ATOM      5  C18 UNK     1      -2.001  -6.083 -16.790  1.00  0.00     0.009 C 
ATOM      6  C19 UNK     1      -2.561  -5.003 -15.820  1.00  0.00     0.020 C 
ATOM      7  C20 UNK     1      -0.817  -5.476 -17.595  1.00  0.00     0.020 C 
BRANCH   5   8
ATOM      8  C17 UNK     1      -1.514  -7.355 -16.017  1.00  0.00     0.219 C 
BRANCH   8   9
ATOM      9  C16 UNK     1      -1.055  -7.082 -14.573  1.00  0.00     0.247 C 
ATOM     10  N2  UNK     1       0.291  -6.785 -14.433  1.00  0.00    -0.358 N 
ATOM     11  H33 UNK     1       0.863  -6.754 -15.267  1.00  0.00     0.162 HD
ATOM     12  O3  UNK     1      -1.804  -7.166 -13.613  1.00  0.00    -0.271 OA
BRANCH  10  13
ATOM     13  C15 UNK     1       0.927  -6.537 -13.133  1.00  0.00     0.132 C 
BRANCH  13  14
ATOM     14  C14 UNK     1       2.147  -7.455 -12.905  1.00  0.00     0.122 C 
BRANCH  14  15
ATOM     15  C13 UNK     1       3.138  -7.445 -14.075  1.00  0.00     0.219 C 
ATOM     16  N1  UNK     1       4.435  -7.124 -13.717  1.00  0.00    -0.360 N 
ATOM     17  H28 UNK     1       4.629  -6.922 -12.745  1.00  0.00     0.162 HD
ATOM     18  O2  UNK     1       2.820  -7.705 -15.222  1.00  0.00    -0.274 OA
BRANCH  16  19
ATOM     19  C12 UNK     1       5.542  -7.075 -14.678  1.00  0.00     0.133 C 
BRANCH  19  20
ATOM     20  C11 UNK     1       6.817  -7.718 -14.106  1.00  0.00     0.102 C 
BRANCH  20  21
ATOM     21  S1  UNK     1       6.727  -9.555 -14.212  1.00  0.00    -0.091 SA
BRANCH  21  22
ATOM     22  C10 UNK     1       6.893  -9.996 -12.469  1.00  0.00     0.186 C 
ATOM     23  O1  UNK     1       6.624 -11.103 -12.034  1.00  0.00    -0.286 OA
BRANCH  22  24
ATOM     24  C9  UNK     1       7.406  -8.839 -11.606  1.00  0.00     0.091 C 
BRANCH  24  25
ATOM     25  C8  UNK     1       6.557  -8.593 -10.337  1.00  0.00     0.008 C 
BRANCH  25  26
ATOM     26  C7  UNK     1       5.079  -8.294 -10.673  1.00  0.00     0.000 C 
BRANCH  26  27
ATOM     27  C6  UNK     1       4.132  -8.680  -9.514  1.00  0.00     0.000 C 
BRANCH  27  28
ATOM     28  C5  UNK     1       4.818  -9.611  -8.490  1.00  0.00     0.000 C 
BRANCH  28  29
ATOM     29  C4  UNK     1       4.519 -11.101  -8.769  1.00  0.00     0.000 C 
BRANCH  29  30
ATOM     30  C3  UNK     1       3.774 -11.775  -7.595  1.00  0.00    -0.000 C 
BRANCH  30  31
ATOM     31  C2  UNK     1       3.849 -13.316  -7.667  1.00  0.00    -0.005 C 
ATOM     32  C1  UNK     1       4.923 -13.890  -6.722  1.00  0.00     0.005 C 
ENDBRANCH  30  31
ENDBRANCH  29  30
ENDBRANCH  28  29
ENDBRANCH  27  28
ENDBRANCH  26  27
ENDBRANCH  25  26
ENDBRANCH  24  25
ENDBRANCH  22  24
ENDBRANCH  21  22
ENDBRANCH  20  21
ENDBRANCH  19  20
ENDBRANCH  16  19
ENDBRANCH  14  15
ENDBRANCH  13  14
ENDBRANCH  10  13
ENDBRANCH   8   9
BRANCH   8  33
ATOM     33  O4  UNK     1      -2.522  -8.373 -15.992  1.00  0.00    -0.385 OA
ATOM     34  H35 UNK     1      -3.383  -7.916 -15.975  1.00  0.00     0.210 HD
ENDBRANCH   8  33
ENDBRANCH   5   8
ENDBRANCH   4   5
ENDBRANCH   3   4
ENDBRANCH   1   3
BRANCH   1  35
ATOM     35  O7  UNK     1      -6.509  -6.622 -18.424  1.00  0.00    -0.307 OA
ATOM     36  H44 UNK     1      -7.137  -6.606 -19.165  1.00  0.00     0.222 HD
ENDBRANCH   1  35
BRANCH   1  37
ATOM     37  O8  UNK     1      -6.084  -4.157 -18.105  1.00  0.00    -0.195 OA
BRANCH  37  38
ATOM     38  P2  UNK     1      -7.418  -3.462 -18.675  1.00  0.00     0.401 P 
ATOM     39  O9  UNK     1      -7.269  -2.759 -19.973  1.00  0.00    -0.631 OA
BRANCH  38  40
ATOM     40  O10 UNK     1      -8.442  -4.702 -18.641  1.00  0.00    -0.307 OA
ATOM     41  H45 UNK     1      -8.900  -4.707 -17.785  1.00  0.00     0.222 HD
ENDBRANCH  38  40
BRANCH  38  42
ATOM     42  O11 UNK     1      -7.899  -2.561 -17.420  1.00  0.00    -0.294 OA
BRANCH  42  43
ATOM     43  C22 UNK     1      -8.411  -1.220 -17.568  1.00  0.00     0.215 C 
BRANCH  43  44
ATOM     44  C23 UNK     1      -7.828  -0.254 -16.504  1.00  0.00     0.180 C 
ATOM     45  O12 UNK     1      -6.387  -0.261 -16.605  1.00  0.00    -0.353 OA
ATOM     46  C24 UNK     1      -5.904   0.768 -17.496  1.00  0.00     0.262 C 
ATOM     47  C30 UNK     1      -7.128   1.660 -17.803  1.00  0.00     0.199 C 
ATOM     48  C31 UNK     1      -8.194   1.218 -16.785  1.00  0.00     0.197 C 
BRANCH  46  49
ATOM     49  N3  UNK     1      -5.302   0.155 -18.688  1.00  0.00    -0.294 N 
ATOM     50  C25 UNK     1      -5.536   0.409 -20.033  1.00  0.00     0.214 A 
ATOM     51  N4  UNK     1      -4.826  -0.366 -20.930  1.00  0.00    -0.236 NA
ATOM     52  C26 UNK     1      -4.131  -1.139 -20.058  1.00  0.00     0.149 A 
ATOM     53  C27 UNK     1      -3.209  -2.156 -20.371  1.00  0.00     0.155 A 
ATOM     54  C29 UNK     1      -4.386  -0.866 -18.718  1.00  0.00     0.167 A 
ATOM     55  N6  UNK     1      -2.595  -2.843 -19.386  1.00  0.00    -0.222 NA
ATOM     56  C28 UNK     1      -2.910  -2.504 -18.113  1.00  0.00     0.237 A 
ATOM     57  N7  UNK     1      -3.778  -1.543 -17.723  1.00  0.00    -0.222 NA
BRANCH  53  58
ATOM     58  N5  UNK     1      -2.883  -2.505 -21.673  1.00  0.00    -0.382 N 
ATOM     59  H49 UNK     1      -3.295  -1.981 -22.435  1.00  0.00     0.157 HD
ATOM     60  H50 UNK     1      -2.518  -3.431 -21.852  1.00  0.00     0.157 HD
ENDBRANCH  53  58
ENDBRANCH  46  49
BRANCH  47  61
ATOM     61  O13 UNK     1      -6.828   3.058 -17.736  1.00  0.00    -0.388 OA
ATOM     62  H52 UNK     1      -6.170   3.248 -18.430  1.00  0.00     0.210 HD
ENDBRANCH  47  61
BRANCH  48  63
ATOM     63  O14 UNK     1      -8.076   1.985 -15.567  1.00  0.00    -0.286 OA
BRANCH  63  64
ATOM     64  P3  UNK     1      -9.093   3.191 -15.227  1.00  0.00     0.391 P 
ATOM     65  O15 UNK     1     -10.404   3.215 -15.921  1.00  0.00    -0.632 OA
BRANCH  64  66
ATOM     66  O16 UNK     1      -9.175   3.118 -13.625  1.00  0.00    -0.307 OA
ATOM     67  H53 UNK     1      -8.567   2.429 -13.312  1.00  0.00     0.222 HD
ENDBRANCH  64  66
BRANCH  64  68
ATOM     68  O17 UNK     1      -8.149   4.474 -15.431  1.00  0.00    -0.307 OA
ATOM     69  H54 UNK     1      -7.868   4.787 -14.555  1.00  0.00     0.222 HD
ENDBRANCH  64  68
ENDBRANCH  63  64
ENDBRANCH  48  63
ENDBRANCH  43  44
ENDBRANCH  42  43
ENDBRANCH  38  42
ENDBRANCH  37  38
ENDBRANCH   1  37
TORSDOF 35
                                                                                                                                                                                      
ENDMDL
MODEL 5
REMARK VINA RESULT:    -6.784      2.868      3.949
REMARK INTER + INTRA:         -23.093
REMARK INTER:                 -18.199
REMARK INTRA:                  -4.894
REMARK UNBOUND:                -3.816
REMARK WARNING: 32 MAX_TORS EXCEEDED!!!
REMARK  35 active torsions:
REMARK  status: ('A' for Active; 'I' for Inactive)
REMARK    1  A    between atoms: C2_2  and  C3_3 
REMARK    2  A    between atoms: C3_3  and  C4_4 
REMARK    3  A    between atoms: C4_4  and  C5_5 
REMARK    4  A    between atoms: C5_5  and  C6_6 
REMARK    5  A    between atoms: C6_6  and  C7_7 
REMARK    6  A    between atoms: C7_7  and  C8_8 
REMARK    7  A    between atoms: C8_8  and  C9_9 
REMARK    8  A    between atoms: C9_9  and  C10_10 
REMARK    9  A    between atoms: C10_10  and  S1_12 
REMARK   10  A    between atoms: S1_12  and  C11_13 
REMARK   11  A    between atoms: C11_13  and  C12_14 
REMARK   12  A    between atoms: C12_14  and  N1_15 
REMARK       I    between atoms: N1_15  and  C13_16 
REMARK   13  A    between atoms: C13_16  and  C14_18 
REMARK   14  A    between atoms: C14_18  and  C15_19 
REMARK   15  A    between atoms: C15_19  and  N2_20 
REMARK       I    between atoms: N2_20  and  C16_21 
REMARK   16  A    between atoms: C16_21  and  C17_23 
REMARK   17  A    between atoms: C17_23  and  O4_24 
REMARK   18  A    between atoms: C17_23  and  C18_25 
REMARK   19  A    between atoms: C18_25  and  C21_28 
REMARK   20  A    between atoms: C21_28  and  O5_29 
REMARK   21  A    between atoms: O5_29  and  P1_30 
REMARK   22  A    between atoms: P1_30  and  O7_32 
REMARK   23  A    between atoms: P1_30  and  O8_33 
REMARK   24  A    between atoms: O8_33  and  P2_34 
REMARK   25  A    between atoms: P2_34  and  O10_36 
REMARK   26  A    between atoms: P2_34  and  O11_37 
REMARK   27  A    between atoms: O11_37  and  C22_38 
REMARK   28  A    between atoms: C22_38  and  C23_39 
REMARK   29  A    between atoms: C24_41  and  N3_42 
REMARK   30  A    between atoms: C27_46  and  N5_47 
REMARK   31  A    between atoms: C30_52  and  O13_53 
REMARK   32  A    between atoms: C31_54  and  O14_55 
REMARK   33  A    between atoms: O14_55  and  P3_56 
REMARK   34  A    between atoms: P3_56  and  O16_58 
REMARK   35  A    between atoms: P3_56  and  O17_59 
ROOT
ATOM      1  P1  UNK     1      -3.218  -7.527 -18.408  1.00  0.00     0.401 P 
ATOM      2  O6  UNK     1      -2.286  -7.278 -19.538  1.00  0.00    -0.631 OA
ENDROOT
BRANCH   1   3
ATOM      3  O5  UNK     1      -2.529  -7.646 -16.955  1.00  0.00    -0.296 OA
BRANCH   3   4
ATOM      4  C21 UNK     1      -1.235  -7.064 -16.717  1.00  0.00     0.192 C 
BRANCH   4   5
ATOM      5  C18 UNK     1      -1.206  -6.350 -15.334  1.00  0.00     0.009 C 
ATOM      6  C19 UNK     1      -2.492  -5.490 -15.167  1.00  0.00     0.020 C 
ATOM      7  C20 UNK     1       0.038  -5.419 -15.266  1.00  0.00     0.020 C 
BRANCH   5   8
ATOM      8  C17 UNK     1      -1.100  -7.450 -14.225  1.00  0.00     0.219 C 
BRANCH   8   9
ATOM      9  C16 UNK     1       0.278  -7.531 -13.541  1.00  0.00     0.247 C 
ATOM     10  N2  UNK     1       0.278  -7.229 -12.189  1.00  0.00    -0.358 N 
ATOM     11  H33 UNK     1      -0.603  -6.996 -11.751  1.00  0.00     0.162 HD
ATOM     12  O3  UNK     1       1.303  -7.795 -14.149  1.00  0.00    -0.271 OA
BRANCH  10  13
ATOM     13  C15 UNK     1       1.499  -7.209 -11.373  1.00  0.00     0.132 C 
BRANCH  13  14
ATOM     14  C14 UNK     1       2.092  -5.788 -11.260  1.00  0.00     0.122 C 
BRANCH  14  15
ATOM     15  C13 UNK     1       3.471  -5.656 -11.914  1.00  0.00     0.219 C 
ATOM     16  N1  UNK     1       3.857  -6.759 -12.654  1.00  0.00    -0.360 N 
ATOM     17  H28 UNK     1       3.226  -7.548 -12.706  1.00  0.00     0.162 HD
ATOM     18  O2  UNK     1       4.171  -4.664 -11.804  1.00  0.00    -0.274 OA
BRANCH  16  19
ATOM     19  C12 UNK     1       5.132  -6.833 -13.377  1.00  0.00     0.133 C 
BRANCH  19  20
ATOM     20  C11 UNK     1       5.034  -7.753 -14.606  1.00  0.00     0.102 C 
BRANCH  20  21
ATOM     21  S1  UNK     1       6.408  -7.416 -15.786  1.00  0.00    -0.091 SA
BRANCH  21  22
ATOM     22  C10 UNK     1       7.258  -9.009 -15.767  1.00  0.00     0.186 C 
ATOM     23  O1  UNK     1       8.068  -9.341 -16.616  1.00  0.00    -0.286 OA
BRANCH  22  24
ATOM     24  C9  UNK     1       6.857  -9.886 -14.577  1.00  0.00     0.091 C 
BRANCH  24  25
ATOM     25  C8  UNK     1       8.002 -10.108 -13.562  1.00  0.00     0.008 C 
BRANCH  25  26
ATOM     26  C7  UNK     1       8.715  -8.787 -13.190  1.00  0.00     0.000 C 
BRANCH  26  27
ATOM     27  C6  UNK     1       8.698  -8.531 -11.666  1.00  0.00     0.000 C 
BRANCH  27  28
ATOM     28  C5  UNK     1       7.923  -9.625 -10.901  1.00  0.00     0.000 C 
BRANCH  28  29
ATOM     29  C4  UNK     1       6.744  -9.042 -10.089  1.00  0.00     0.000 C 
BRANCH  29  30
ATOM     30  C3  UNK     1       5.375  -9.464 -10.667  1.00  0.00    -0.000 C 
BRANCH  30  31
ATOM     31  C2  UNK     1       4.216  -9.172  -9.688  1.00  0.00    -0.005 C 
ATOM     32  C1  UNK     1       4.374  -7.804  -8.995  1.00  0.00     0.005 C 
ENDBRANCH  30  31
ENDBRANCH  29  30
ENDBRANCH  28  29
ENDBRANCH  27  28
ENDBRANCH  26  27
ENDBRANCH  25  26
ENDBRANCH  24  25
ENDBRANCH  22  24
ENDBRANCH  21  22
ENDBRANCH  20  21
ENDBRANCH  19  20
ENDBRANCH  16  19
ENDBRANCH  14  15
ENDBRANCH  13  14
ENDBRANCH  10  13
ENDBRANCH   8   9
BRANCH   8  33
ATOM     33  O4  UNK     1      -2.102  -7.278 -13.215  1.00  0.00    -0.385 OA
ATOM     34  H35 UNK     1      -2.356  -8.170 -12.915  1.00  0.00     0.210 HD
ENDBRANCH   8  33
ENDBRANCH   5   8
ENDBRANCH   4   5
ENDBRANCH   3   4
ENDBRANCH   1   3
BRANCH   1  35
ATOM     35  O7  UNK     1      -4.081  -8.884 -18.447  1.00  0.00    -0.307 OA
ATOM     36  H44 UNK     1      -3.567  -9.592 -18.025  1.00  0.00     0.222 HD
ENDBRANCH   1  35
BRANCH   1  37
ATOM     37  O8  UNK     1      -4.330  -6.396 -18.133  1.00  0.00    -0.195 OA
BRANCH  37  38
ATOM     38  P2  UNK     1      -5.704  -6.194 -18.946  1.00  0.00     0.401 P 
ATOM     39  O9  UNK     1      -5.590  -6.268 -20.424  1.00  0.00    -0.631 OA
BRANCH  38  40
ATOM     40  O10 UNK     1      -6.637  -7.298 -18.239  1.00  0.00    -0.307 OA
ATOM     41  H45 UNK     1      -7.567  -7.064 -18.388  1.00  0.00     0.222 HD
ENDBRANCH  38  40
BRANCH  38  42
ATOM     42  O11 UNK     1      -6.263  -4.803 -18.336  1.00  0.00    -0.294 OA
BRANCH  42  43
ATOM     43  C22 UNK     1      -7.551  -4.255 -18.686  1.00  0.00     0.215 C 
BRANCH  43  44
ATOM     44  C23 UNK     1      -7.674  -2.760 -18.290  1.00  0.00     0.180 C 
ATOM     45  O12 UNK     1      -6.349  -2.197 -18.172  1.00  0.00    -0.353 OA
ATOM     46  C24 UNK     1      -5.900  -1.611 -19.414  1.00  0.00     0.262 C 
ATOM     47  C30 UNK     1      -7.140  -1.589 -20.335  1.00  0.00     0.199 C 
ATOM     48  C31 UNK     1      -8.321  -1.910 -19.402  1.00  0.00     0.197 C 
BRANCH  46  49
ATOM     49  N3  UNK     1      -4.774  -2.385 -19.953  1.00  0.00    -0.294 N 
ATOM     50  C25 UNK     1      -4.587  -2.918 -21.222  1.00  0.00     0.214 A 
ATOM     51  N4  UNK     1      -3.421  -3.634 -21.416  1.00  0.00    -0.236 NA
ATOM     52  C26 UNK     1      -2.884  -3.527 -20.174  1.00  0.00     0.149 A 
ATOM     53  C27 UNK     1      -1.662  -4.066 -19.727  1.00  0.00     0.155 A 
ATOM     54  C29 UNK     1      -3.655  -2.798 -19.274  1.00  0.00     0.167 A 
ATOM     55  N6  UNK     1      -1.261  -3.874 -18.453  1.00  0.00    -0.222 NA
ATOM     56  C28 UNK     1      -2.082  -3.151 -17.654  1.00  0.00     0.237 A 
ATOM     57  N7  UNK     1      -3.265  -2.596 -17.999  1.00  0.00    -0.222 NA
BRANCH  53  58
ATOM     58  N5  UNK     1      -0.820  -4.805 -20.543  1.00  0.00    -0.382 N 
ATOM     59  H49 UNK     1      -0.758  -5.805 -20.401  1.00  0.00     0.157 HD
ATOM     60  H50 UNK     1      -0.071  -4.328 -21.029  1.00  0.00     0.157 HD
ENDBRANCH  53  58
ENDBRANCH  46  49
BRANCH  47  61
ATOM     61  O13 UNK     1      -7.293  -0.348 -21.032  1.00  0.00    -0.388 OA
ATOM     62  H52 UNK     1      -7.146   0.368 -20.388  1.00  0.00     0.210 HD
ENDBRANCH  47  61
BRANCH  48  63
ATOM     63  O14 UNK     1      -8.857  -0.697 -18.831  1.00  0.00    -0.286 OA
BRANCH  63  64
ATOM     64  P3  UNK     1     -10.318  -0.144 -19.240  1.00  0.00     0.391 P 
ATOM     65  O15 UNK     1     -10.643   1.268 -18.922  1.00  0.00    -0.632 OA
BRANCH  64  66
ATOM     66  O16 UNK     1     -10.397  -0.525 -20.797  1.00  0.00    -0.307 OA
ATOM     67  H53 UNK     1     -11.031  -1.251 -20.910  1.00  0.00     0.222 HD
ENDBRANCH  64  66
BRANCH  64  68
ATOM     68  O17 UNK     1     -11.273  -1.263 -18.598  1.00  0.00    -0.307 OA
ATOM     69  H54 UNK     1     -11.742  -1.715 -19.320  1.00  0.00     0.222 HD
ENDBRANCH  64  68
ENDBRANCH  63  64
ENDBRANCH  48  63
ENDBRANCH  43  44
ENDBRANCH  42  43
ENDBRANCH  38  42
ENDBRANCH  37  38
ENDBRANCH   1  37
TORSDOF 35
                                                                                                                                                                                      
ENDMDL
MODEL 6
REMARK VINA RESULT:    -6.561      5.988     14.267
REMARK INTER + INTRA:         -22.460
REMARK INTER:                 -18.308
REMARK INTRA:                  -4.152
REMARK UNBOUND:                -3.816
REMARK WARNING: 32 MAX_TORS EXCEEDED!!!
REMARK  35 active torsions:
REMARK  status: ('A' for Active; 'I' for Inactive)
REMARK    1  A    between atoms: C2_2  and  C3_3 
REMARK    2  A    between atoms: C3_3  and  C4_4 
REMARK    3  A    between atoms: C4_4  and  C5_5 
REMARK    4  A    between atoms: C5_5  and  C6_6 
REMARK    5  A    between atoms: C6_6  and  C7_7 
REMARK    6  A    between atoms: C7_7  and  C8_8 
REMARK    7  A    between atoms: C8_8  and  C9_9 
REMARK    8  A    between atoms: C9_9  and  C10_10 
REMARK    9  A    between atoms: C10_10  and  S1_12 
REMARK   10  A    between atoms: S1_12  and  C11_13 
REMARK   11  A    between atoms: C11_13  and  C12_14 
REMARK   12  A    between atoms: C12_14  and  N1_15 
REMARK       I    between atoms: N1_15  and  C13_16 
REMARK   13  A    between atoms: C13_16  and  C14_18 
REMARK   14  A    between atoms: C14_18  and  C15_19 
REMARK   15  A    between atoms: C15_19  and  N2_20 
REMARK       I    between atoms: N2_20  and  C16_21 
REMARK   16  A    between atoms: C16_21  and  C17_23 
REMARK   17  A    between atoms: C17_23  and  O4_24 
REMARK   18  A    between atoms: C17_23  and  C18_25 
REMARK   19  A    between atoms: C18_25  and  C21_28 
REMARK   20  A    between atoms: C21_28  and  O5_29 
REMARK   21  A    between atoms: O5_29  and  P1_30 
REMARK   22  A    between atoms: P1_30  and  O7_32 
REMARK   23  A    between atoms: P1_30  and  O8_33 
REMARK   24  A    between atoms: O8_33  and  P2_34 
REMARK   25  A    between atoms: P2_34  and  O10_36 
REMARK   26  A    between atoms: P2_34  and  O11_37 
REMARK   27  A    between atoms: O11_37  and  C22_38 
REMARK   28  A    between atoms: C22_38  and  C23_39 
REMARK   29  A    between atoms: C24_41  and  N3_42 
REMARK   30  A    between atoms: C27_46  and  N5_47 
REMARK   31  A    between atoms: C30_52  and  O13_53 
REMARK   32  A    between atoms: C31_54  and  O14_55 
REMARK   33  A    between atoms: O14_55  and  P3_56 
REMARK   34  A    between atoms: P3_56  and  O16_58 
REMARK   35  A    between atoms: P3_56  and  O17_59 
ROOT
ATOM      1  P1  UNK     1       6.248  -7.453 -13.268  1.00  0.00     0.401 P 
ATOM      2  O6  UNK     1       6.006  -6.717 -14.535  1.00  0.00    -0.631 OA
ENDROOT
BRANCH   1   3
ATOM      3  O5  UNK     1       5.202  -7.145 -12.079  1.00  0.00    -0.296 OA
BRANCH   3   4
ATOM      4  C21 UNK     1       4.053  -6.315 -12.321  1.00  0.00     0.192 C 
BRANCH   4   5
ATOM      5  C18 UNK     1       3.109  -6.318 -11.084  1.00  0.00     0.009 C 
ATOM      6  C19 UNK     1       3.421  -5.083 -10.190  1.00  0.00     0.020 C 
ATOM      7  C20 UNK     1       3.353  -7.614 -10.259  1.00  0.00     0.020 C 
BRANCH   5   8
ATOM      8  C17 UNK     1       1.632  -6.296 -11.603  1.00  0.00     0.219 C 
BRANCH   8   9
ATOM      9  C16 UNK     1       1.364  -7.238 -12.793  1.00  0.00     0.247 C 
ATOM     10  N2  UNK     1       1.221  -6.606 -14.018  1.00  0.00    -0.358 N 
ATOM     11  H33 UNK     1       1.315  -5.600 -14.051  1.00  0.00     0.162 HD
ATOM     12  O3  UNK     1       1.238  -8.444 -12.665  1.00  0.00    -0.271 OA
BRANCH  10  13
ATOM     13  C15 UNK     1       0.920  -7.327 -15.261  1.00  0.00     0.132 C 
BRANCH  13  14
ATOM     14  C14 UNK     1      -0.543  -7.817 -15.301  1.00  0.00     0.122 C 
BRANCH  14  15
ATOM     15  C13 UNK     1      -1.558  -6.715 -14.978  1.00  0.00     0.219 C 
ATOM     16  N1  UNK     1      -1.797  -5.840 -16.022  1.00  0.00    -0.360 N 
ATOM     17  H28 UNK     1      -1.300  -5.982 -16.892  1.00  0.00     0.162 HD
ATOM     18  O2  UNK     1      -2.118  -6.616 -13.900  1.00  0.00    -0.274 OA
BRANCH  16  19
ATOM     19  C12 UNK     1      -2.746  -4.725 -15.932  1.00  0.00     0.133 C 
BRANCH  19  20
ATOM     20  C11 UNK     1      -3.457  -4.475 -17.273  1.00  0.00     0.102 C 
BRANCH  20  21
ATOM     21  S1  UNK     1      -3.782  -6.065 -18.146  1.00  0.00    -0.091 SA
BRANCH  21  22
ATOM     22  C10 UNK     1      -5.562  -5.933 -18.420  1.00  0.00     0.186 C 
ATOM     23  O1  UNK     1      -6.302  -6.901 -18.461  1.00  0.00    -0.286 OA
BRANCH  22  24
ATOM     24  C9  UNK     1      -6.035  -4.487 -18.590  1.00  0.00     0.091 C 
BRANCH  24  25
ATOM     25  C8  UNK     1      -7.568  -4.355 -18.750  1.00  0.00     0.008 C 
BRANCH  25  26
ATOM     26  C7  UNK     1      -8.151  -3.228 -17.867  1.00  0.00     0.000 C 
BRANCH  26  27
ATOM     27  C6  UNK     1      -9.410  -2.592 -18.497  1.00  0.00     0.000 C 
BRANCH  27  28
ATOM     28  C5  UNK     1      -9.439  -1.058 -18.317  1.00  0.00     0.000 C 
BRANCH  28  29
ATOM     29  C4  UNK     1      -8.441  -0.581 -17.238  1.00  0.00     0.000 C 
BRANCH  29  30
ATOM     30  C3  UNK     1      -7.290   0.256 -17.838  1.00  0.00    -0.000 C 
BRANCH  30  31
ATOM     31  C2  UNK     1      -6.016   0.201 -16.967  1.00  0.00    -0.005 C 
ATOM     32  C1  UNK     1      -5.095  -0.972 -17.356  1.00  0.00     0.005 C 
ENDBRANCH  30  31
ENDBRANCH  29  30
ENDBRANCH  28  29
ENDBRANCH  27  28
ENDBRANCH  26  27
ENDBRANCH  25  26
ENDBRANCH  24  25
ENDBRANCH  22  24
ENDBRANCH  21  22
ENDBRANCH  20  21
ENDBRANCH  19  20
ENDBRANCH  16  19
ENDBRANCH  14  15
ENDBRANCH  13  14
ENDBRANCH  10  13
ENDBRANCH   8   9
BRANCH   8  33
ATOM     33  O4  UNK     1       0.702  -6.603 -10.558  1.00  0.00    -0.385 OA
ATOM     34  H35 UNK     1       1.117  -7.290 -10.005  1.00  0.00     0.210 HD
ENDBRANCH   8  33
ENDBRANCH   5   8
ENDBRANCH   4   5
ENDBRANCH   3   4
ENDBRANCH   1   3
BRANCH   1  35
ATOM     35  O7  UNK     1       7.647  -7.192 -12.517  1.00  0.00    -0.307 OA
ATOM     36  H44 UNK     1       7.857  -6.245 -12.571  1.00  0.00     0.222 HD
ENDBRANCH   1  35
BRANCH   1  37
ATOM     37  O8  UNK     1       6.168  -9.059 -13.344  1.00  0.00    -0.195 OA
BRANCH  37  38
ATOM     38  P2  UNK     1       6.744  -9.985 -14.527  1.00  0.00     0.401 P 
ATOM     39  O9  UNK     1       6.658 -11.448 -14.294  1.00  0.00    -0.631 OA
BRANCH  38  40
ATOM     40  O10 UNK     1       5.928  -9.407 -15.787  1.00  0.00    -0.307 OA
ATOM     41  H45 UNK     1       5.119  -9.931 -15.903  1.00  0.00     0.222 HD
ENDBRANCH  38  40
BRANCH  38  42
ATOM     42  O11 UNK     1       8.228  -9.378 -14.747  1.00  0.00    -0.294 OA
BRANCH  42  43
ATOM     43  C22 UNK     1       8.876  -9.337 -16.035  1.00  0.00     0.215 C 
BRANCH  43  44
ATOM     44  C23 UNK     1       9.806  -8.104 -16.181  1.00  0.00     0.180 C 
ATOM     45  O12 UNK     1      10.184  -7.965 -17.568  1.00  0.00    -0.353 OA
ATOM     46  C24 UNK     1       9.278  -7.101 -18.289  1.00  0.00     0.262 C 
ATOM     47  C30 UNK     1       8.384  -6.444 -17.213  1.00  0.00     0.199 C 
ATOM     48  C31 UNK     1       9.075  -6.779 -15.879  1.00  0.00     0.197 C 
BRANCH  46  49
ATOM     49  N3  UNK     1       8.532  -7.879 -19.286  1.00  0.00    -0.294 N 
ATOM     50  C25 UNK     1       8.425  -9.256 -19.442  1.00  0.00     0.214 A 
ATOM     51  N4  UNK     1       7.664  -9.689 -20.512  1.00  0.00    -0.236 NA
ATOM     52  C26 UNK     1       7.303  -8.488 -21.031  1.00  0.00     0.149 A 
ATOM     53  C27 UNK     1       6.502  -8.260 -22.166  1.00  0.00     0.155 A 
ATOM     54  C29 UNK     1       7.799  -7.389 -20.338  1.00  0.00     0.167 A 
ATOM     55  N6  UNK     1       6.231  -6.999 -22.562  1.00  0.00    -0.222 NA
ATOM     56  C28 UNK     1       6.759  -5.996 -21.822  1.00  0.00     0.237 A 
ATOM     57  N7  UNK     1       7.533  -6.124 -20.721  1.00  0.00    -0.222 NA
BRANCH  53  58
ATOM     58  N5  UNK     1       5.958  -9.285 -22.925  1.00  0.00    -0.382 N 
ATOM     59  H49 UNK     1       5.124  -9.099 -23.466  1.00  0.00     0.157 HD
ATOM     60  H50 UNK     1       6.192 -10.241 -22.690  1.00  0.00     0.157 HD
ENDBRANCH  53  58
ENDBRANCH  46  49
BRANCH  47  61
ATOM     61  O13 UNK     1       8.206  -5.039 -17.419  1.00  0.00    -0.388 OA
ATOM     62  H52 UNK     1       8.608  -4.818 -18.280  1.00  0.00     0.210 HD
ENDBRANCH  47  61
BRANCH  48  63
ATOM     63  O14 UNK     1      10.042  -5.761 -15.543  1.00  0.00    -0.286 OA
BRANCH  63  64
ATOM     64  P3  UNK     1       9.782  -4.713 -14.343  1.00  0.00     0.391 P 
ATOM     65  O15 UNK     1      10.432  -3.382 -14.427  1.00  0.00    -0.632 OA
BRANCH  64  66
ATOM     66  O16 UNK     1       8.179  -4.682 -14.267  1.00  0.00    -0.307 OA
ATOM     67  H53 UNK     1       7.905  -4.890 -13.359  1.00  0.00     0.222 HD
ENDBRANCH  64  66
BRANCH  64  68
ATOM     68  O17 UNK     1      10.137  -5.605 -13.057  1.00  0.00    -0.307 OA
ATOM     69  H54 UNK     1      10.150  -5.023 -12.277  1.00  0.00     0.222 HD
ENDBRANCH  64  68
ENDBRANCH  63  64
ENDBRANCH  48  63
ENDBRANCH  43  44
ENDBRANCH  42  43
ENDBRANCH  38  42
ENDBRANCH  37  38
ENDBRANCH   1  37
TORSDOF 35
                                                                                                                                                                                      
ENDMDL
MODEL 7
REMARK VINA RESULT:    -6.558      3.877      8.132
REMARK INTER + INTRA:         -22.450
REMARK INTER:                 -15.503
REMARK INTRA:                  -6.947
REMARK UNBOUND:                -3.816
REMARK WARNING: 32 MAX_TORS EXCEEDED!!!
REMARK  35 active torsions:
REMARK  status: ('A' for Active; 'I' for Inactive)
REMARK    1  A    between atoms: C2_2  and  C3_3 
REMARK    2  A    between atoms: C3_3  and  C4_4 
REMARK    3  A    between atoms: C4_4  and  C5_5 
REMARK    4  A    between atoms: C5_5  and  C6_6 
REMARK    5  A    between atoms: C6_6  and  C7_7 
REMARK    6  A    between atoms: C7_7  and  C8_8 
REMARK    7  A    between atoms: C8_8  and  C9_9 
REMARK    8  A    between atoms: C9_9  and  C10_10 
REMARK    9  A    between atoms: C10_10  and  S1_12 
REMARK   10  A    between atoms: S1_12  and  C11_13 
REMARK   11  A    between atoms: C11_13  and  C12_14 
REMARK   12  A    between atoms: C12_14  and  N1_15 
REMARK       I    between atoms: N1_15  and  C13_16 
REMARK   13  A    between atoms: C13_16  and  C14_18 
REMARK   14  A    between atoms: C14_18  and  C15_19 
REMARK   15  A    between atoms: C15_19  and  N2_20 
REMARK       I    between atoms: N2_20  and  C16_21 
REMARK   16  A    between atoms: C16_21  and  C17_23 
REMARK   17  A    between atoms: C17_23  and  O4_24 
REMARK   18  A    between atoms: C17_23  and  C18_25 
REMARK   19  A    between atoms: C18_25  and  C21_28 
REMARK   20  A    between atoms: C21_28  and  O5_29 
REMARK   21  A    between atoms: O5_29  and  P1_30 
REMARK   22  A    between atoms: P1_30  and  O7_32 
REMARK   23  A    between atoms: P1_30  and  O8_33 
REMARK   24  A    between atoms: O8_33  and  P2_34 
REMARK   25  A    between atoms: P2_34  and  O10_36 
REMARK   26  A    between atoms: P2_34  and  O11_37 
REMARK   27  A    between atoms: O11_37  and  C22_38 
REMARK   28  A    between atoms: C22_38  and  C23_39 
REMARK   29  A    between atoms: C24_41  and  N3_42 
REMARK   30  A    between atoms: C27_46  and  N5_47 
REMARK   31  A    between atoms: C30_52  and  O13_53 
REMARK   32  A    between atoms: C31_54  and  O14_55 
REMARK   33  A    between atoms: O14_55  and  P3_56 
REMARK   34  A    between atoms: P3_56  and  O16_58 
REMARK   35  A    between atoms: P3_56  and  O17_59 
ROOT
ATOM      1  P1  UNK     1      -3.103  -0.678 -18.950  1.00  0.00     0.401 P 
ATOM      2  O6  UNK     1      -3.726  -1.150 -17.687  1.00  0.00    -0.631 OA
ENDROOT
BRANCH   1   3
ATOM      3  O5  UNK     1      -1.938   0.425 -18.778  1.00  0.00    -0.296 OA
BRANCH   3   4
ATOM      4  C21 UNK     1      -2.211   1.813 -19.036  1.00  0.00     0.192 C 
BRANCH   4   5
ATOM      5  C18 UNK     1      -0.933   2.530 -19.560  1.00  0.00     0.009 C 
ATOM      6  C19 UNK     1       0.277   2.165 -18.651  1.00  0.00     0.020 C 
ATOM      7  C20 UNK     1      -1.155   4.069 -19.512  1.00  0.00     0.020 C 
BRANCH   5   8
ATOM      8  C17 UNK     1      -0.699   2.079 -21.040  1.00  0.00     0.219 C 
BRANCH   8   9
ATOM      9  C16 UNK     1       0.450   1.068 -21.221  1.00  0.00     0.247 C 
ATOM     10  N2  UNK     1       0.114  -0.251 -20.967  1.00  0.00    -0.358 N 
ATOM     11  H33 UNK     1      -0.840  -0.459 -20.701  1.00  0.00     0.162 HD
ATOM     12  O3  UNK     1       1.585   1.404 -21.519  1.00  0.00    -0.271 OA
BRANCH  10  13
ATOM     13  C15 UNK     1       1.080  -1.354 -21.043  1.00  0.00     0.132 C 
BRANCH  13  14
ATOM     14  C14 UNK     1       1.433  -1.907 -19.645  1.00  0.00     0.122 C 
BRANCH  14  15
ATOM     15  C13 UNK     1       1.034  -3.374 -19.457  1.00  0.00     0.219 C 
ATOM     16  N1  UNK     1      -0.142  -3.557 -18.752  1.00  0.00    -0.360 N 
ATOM     17  H28 UNK     1      -0.635  -2.738 -18.419  1.00  0.00     0.162 HD
ATOM     18  O2  UNK     1       1.685  -4.306 -19.895  1.00  0.00    -0.274 OA
BRANCH  16  19
ATOM     19  C12 UNK     1      -0.714  -4.880 -18.476  1.00  0.00     0.133 C 
BRANCH  19  20
ATOM     20  C11 UNK     1      -1.330  -4.948 -17.068  1.00  0.00     0.102 C 
BRANCH  20  21
ATOM     21  S1  UNK     1      -0.147  -5.701 -15.873  1.00  0.00    -0.091 SA
BRANCH  21  22
ATOM     22  C10 UNK     1      -1.296  -6.461 -14.705  1.00  0.00     0.186 C 
ATOM     23  O1  UNK     1      -2.490  -6.217 -14.692  1.00  0.00    -0.286 OA
BRANCH  22  24
ATOM     24  C9  UNK     1      -0.612  -7.438 -13.744  1.00  0.00     0.091 C 
BRANCH  24  25
ATOM     25  C8  UNK     1       0.856  -7.066 -13.429  1.00  0.00     0.008 C 
BRANCH  25  26
ATOM     26  C7  UNK     1       1.350  -7.705 -12.111  1.00  0.00     0.000 C 
BRANCH  26  27
ATOM     27  C6  UNK     1       1.520  -6.657 -10.989  1.00  0.00     0.000 C 
BRANCH  27  28
ATOM     28  C5  UNK     1       2.955  -6.645 -10.417  1.00  0.00     0.000 C 
BRANCH  28  29
ATOM     29  C4  UNK     1       3.581  -8.058 -10.390  1.00  0.00     0.000 C 
BRANCH  29  30
ATOM     30  C3  UNK     1       4.798  -8.173 -11.335  1.00  0.00    -0.000 C 
BRANCH  30  31
ATOM     31  C2  UNK     1       5.065  -6.858 -12.100  1.00  0.00    -0.005 C 
ATOM     32  C1  UNK     1       4.907  -7.030 -13.623  1.00  0.00     0.005 C 
ENDBRANCH  30  31
ENDBRANCH  29  30
ENDBRANCH  28  29
ENDBRANCH  27  28
ENDBRANCH  26  27
ENDBRANCH  25  26
ENDBRANCH  24  25
ENDBRANCH  22  24
ENDBRANCH  21  22
ENDBRANCH  20  21
ENDBRANCH  19  20
ENDBRANCH  16  19
ENDBRANCH  14  15
ENDBRANCH  13  14
ENDBRANCH  10  13
ENDBRANCH   8   9
BRANCH   8  33
ATOM     33  O4  UNK     1      -1.888   1.525 -21.616  1.00  0.00    -0.385 OA
ATOM     34  H35 UNK     1      -2.120   2.088 -22.378  1.00  0.00     0.210 HD
ENDBRANCH   8  33
ENDBRANCH   5   8
ENDBRANCH   4   5
ENDBRANCH   3   4
ENDBRANCH   1   3
BRANCH   1  35
ATOM     35  O7  UNK     1      -4.059   0.054 -20.017  1.00  0.00    -0.307 OA
ATOM     36  H44 UNK     1      -4.970   0.041 -19.680  1.00  0.00     0.222 HD
ENDBRANCH   1  35
BRANCH   1  37
ATOM     37  O8  UNK     1      -2.349  -1.789 -19.838  1.00  0.00    -0.195 OA
BRANCH  37  38
ATOM     38  P2  UNK     1      -2.736  -2.234 -21.336  1.00  0.00     0.401 P 
ATOM     39  O9  UNK     1      -2.597  -1.180 -22.372  1.00  0.00    -0.631 OA
BRANCH  38  40
ATOM     40  O10 UNK     1      -1.816  -3.541 -21.509  1.00  0.00    -0.307 OA
ATOM     41  H45 UNK     1      -1.432  -3.771 -20.648  1.00  0.00     0.222 HD
ENDBRANCH  38  40
BRANCH  38  42
ATOM     42  O11 UNK     1      -4.217  -2.856 -21.138  1.00  0.00    -0.294 OA
BRANCH  42  43
ATOM     43  C22 UNK     1      -4.461  -4.272 -21.004  1.00  0.00     0.215 C 
BRANCH  43  44
ATOM     44  C23 UNK     1      -4.162  -4.782 -19.570  1.00  0.00     0.180 C 
ATOM     45  O12 UNK     1      -4.910  -3.985 -18.625  1.00  0.00    -0.353 OA
ATOM     46  C24 UNK     1      -6.200  -4.566 -18.334  1.00  0.00     0.262 C 
ATOM     47  C30 UNK     1      -6.174  -5.976 -18.965  1.00  0.00     0.199 C 
ATOM     48  C31 UNK     1      -4.698  -6.208 -19.331  1.00  0.00     0.197 C 
BRANCH  46  49
ATOM     49  N3  UNK     1      -7.266  -3.702 -18.856  1.00  0.00    -0.294 N 
ATOM     50  C25 UNK     1      -8.096  -3.877 -19.956  1.00  0.00     0.214 A 
ATOM     51  N4  UNK     1      -8.992  -2.856 -20.211  1.00  0.00    -0.236 NA
ATOM     52  C26 UNK     1      -8.665  -2.013 -19.200  1.00  0.00     0.149 A 
ATOM     53  C27 UNK     1      -9.242  -0.759 -18.918  1.00  0.00     0.155 A 
ATOM     54  C29 UNK     1      -7.644  -2.473 -18.375  1.00  0.00     0.167 A 
ATOM     55  N6  UNK     1      -8.804  -0.031 -17.871  1.00  0.00    -0.222 NA
ATOM     56  C28 UNK     1      -7.806  -0.564 -17.127  1.00  0.00     0.237 A 
ATOM     57  N7  UNK     1      -7.198  -1.756 -17.322  1.00  0.00    -0.222 NA
BRANCH  53  58
ATOM     58  N5  UNK     1     -10.265  -0.212 -19.677  1.00  0.00    -0.382 N 
ATOM     59  H49 UNK     1     -10.700  -0.782 -20.390  1.00  0.00     0.157 HD
ATOM     60  H50 UNK     1     -10.343   0.795 -19.734  1.00  0.00     0.157 HD
ENDBRANCH  53  58
ENDBRANCH  46  49
BRANCH  47  61
ATOM     61  O13 UNK     1      -6.706  -6.983 -18.099  1.00  0.00    -0.388 OA
ATOM     62  H52 UNK     1      -6.800  -6.586 -17.213  1.00  0.00     0.210 HD
ENDBRANCH  47  61
BRANCH  48  63
ATOM     63  O14 UNK     1      -3.992  -6.809 -18.224  1.00  0.00    -0.286 OA
BRANCH  63  64
ATOM     64  P3  UNK     1      -3.225  -8.221 -18.377  1.00  0.00     0.391 P 
ATOM     65  O15 UNK     1      -2.427  -8.709 -17.226  1.00  0.00    -0.632 OA
BRANCH  64  66
ATOM     66  O16 UNK     1      -4.412  -9.198 -18.843  1.00  0.00    -0.307 OA
ATOM     67  H53 UNK     1      -5.253  -8.717 -18.783  1.00  0.00     0.222 HD
ENDBRANCH  64  66
BRANCH  64  68
ATOM     68  O17 UNK     1      -2.437  -8.009 -19.759  1.00  0.00    -0.307 OA
ATOM     69  H54 UNK     1      -3.091  -7.877 -20.466  1.00  0.00     0.222 HD
ENDBRANCH  64  68
ENDBRANCH  63  64
ENDBRANCH  48  63
ENDBRANCH  43  44
ENDBRANCH  42  43
ENDBRANCH  38  42
ENDBRANCH  37  38
ENDBRANCH   1  37
TORSDOF 35
                                                                                                                                                                                      
ENDMDL
MODEL 8
REMARK VINA RESULT:    -6.494      2.429      3.607
REMARK INTER + INTRA:         -22.268
REMARK INTER:                 -18.592
REMARK INTRA:                  -3.676
REMARK UNBOUND:                -3.816
REMARK WARNING: 32 MAX_TORS EXCEEDED!!!
REMARK  35 active torsions:
REMARK  status: ('A' for Active; 'I' for Inactive)
REMARK    1  A    between atoms: C2_2  and  C3_3 
REMARK    2  A    between atoms: C3_3  and  C4_4 
REMARK    3  A    between atoms: C4_4  and  C5_5 
REMARK    4  A    between atoms: C5_5  and  C6_6 
REMARK    5  A    between atoms: C6_6  and  C7_7 
REMARK    6  A    between atoms: C7_7  and  C8_8 
REMARK    7  A    between atoms: C8_8  and  C9_9 
REMARK    8  A    between atoms: C9_9  and  C10_10 
REMARK    9  A    between atoms: C10_10  and  S1_12 
REMARK   10  A    between atoms: S1_12  and  C11_13 
REMARK   11  A    between atoms: C11_13  and  C12_14 
REMARK   12  A    between atoms: C12_14  and  N1_15 
REMARK       I    between atoms: N1_15  and  C13_16 
REMARK   13  A    between atoms: C13_16  and  C14_18 
REMARK   14  A    between atoms: C14_18  and  C15_19 
REMARK   15  A    between atoms: C15_19  and  N2_20 
REMARK       I    between atoms: N2_20  and  C16_21 
REMARK   16  A    between atoms: C16_21  and  C17_23 
REMARK   17  A    between atoms: C17_23  and  O4_24 
REMARK   18  A    between atoms: C17_23  and  C18_25 
REMARK   19  A    between atoms: C18_25  and  C21_28 
REMARK   20  A    between atoms: C21_28  and  O5_29 
REMARK   21  A    between atoms: O5_29  and  P1_30 
REMARK   22  A    between atoms: P1_30  and  O7_32 
REMARK   23  A    between atoms: P1_30  and  O8_33 
REMARK   24  A    between atoms: O8_33  and  P2_34 
REMARK   25  A    between atoms: P2_34  and  O10_36 
REMARK   26  A    between atoms: P2_34  and  O11_37 
REMARK   27  A    between atoms: O11_37  and  C22_38 
REMARK   28  A    between atoms: C22_38  and  C23_39 
REMARK   29  A    between atoms: C24_41  and  N3_42 
REMARK   30  A    between atoms: C27_46  and  N5_47 
REMARK   31  A    between atoms: C30_52  and  O13_53 
REMARK   32  A    between atoms: C31_54  and  O14_55 
REMARK   33  A    between atoms: O14_55  and  P3_56 
REMARK   34  A    between atoms: P3_56  and  O16_58 
REMARK   35  A    between atoms: P3_56  and  O17_59 
ROOT
ATOM      1  P1  UNK     1      -3.142  -7.693 -18.393  1.00  0.00     0.401 P 
ATOM      2  O6  UNK     1      -2.271  -7.237 -19.505  1.00  0.00    -0.631 OA
ENDROOT
BRANCH   1   3
ATOM      3  O5  UNK     1      -2.452  -7.710 -16.935  1.00  0.00    -0.296 OA
BRANCH   3   4
ATOM      4  C21 UNK     1      -1.197  -7.041 -16.719  1.00  0.00     0.192 C 
BRANCH   4   5
ATOM      5  C18 UNK     1      -1.184  -6.343 -15.328  1.00  0.00     0.009 C 
ATOM      6  C19 UNK     1      -2.470  -5.482 -15.168  1.00  0.00     0.020 C 
ATOM      7  C20 UNK     1       0.061  -5.415 -15.234  1.00  0.00     0.020 C 
BRANCH   5   8
ATOM      8  C17 UNK     1      -1.094  -7.456 -14.231  1.00  0.00     0.219 C 
BRANCH   8   9
ATOM      9  C16 UNK     1       0.286  -7.572 -13.557  1.00  0.00     0.247 C 
ATOM     10  N2  UNK     1       0.303  -7.272 -12.204  1.00  0.00    -0.358 N 
ATOM     11  H33 UNK     1      -0.569  -7.019 -11.759  1.00  0.00     0.162 HD
ATOM     12  O3  UNK     1       1.300  -7.859 -14.171  1.00  0.00    -0.271 OA
BRANCH  10  13
ATOM     13  C15 UNK     1       1.529  -7.284 -11.396  1.00  0.00     0.132 C 
BRANCH  13  14
ATOM     14  C14 UNK     1       2.109  -5.865 -11.211  1.00  0.00     0.122 C 
BRANCH  14  15
ATOM     15  C13 UNK     1       3.476  -5.680 -11.877  1.00  0.00     0.219 C 
ATOM     16  N1  UNK     1       3.879  -6.750 -12.655  1.00  0.00    -0.360 N 
ATOM     17  H28 UNK     1       3.266  -7.553 -12.722  1.00  0.00     0.162 HD
ATOM     18  O2  UNK     1       4.154  -4.675 -11.746  1.00  0.00    -0.274 OA
BRANCH  16  19
ATOM     19  C12 UNK     1       5.146  -6.772 -13.395  1.00  0.00     0.133 C 
BRANCH  19  20
ATOM     20  C11 UNK     1       6.274  -7.414 -12.568  1.00  0.00     0.102 C 
BRANCH  20  21
ATOM     21  S1  UNK     1       5.689  -8.962 -11.757  1.00  0.00    -0.091 SA
BRANCH  21  22
ATOM     22  C10 UNK     1       6.228  -8.668 -10.058  1.00  0.00     0.186 C 
ATOM     23  O1  UNK     1       7.386  -8.434  -9.759  1.00  0.00    -0.286 OA
BRANCH  22  24
ATOM     24  C9  UNK     1       5.081  -8.741  -9.046  1.00  0.00     0.091 C 
BRANCH  24  25
ATOM     25  C8  UNK     1       4.272 -10.057  -9.125  1.00  0.00     0.008 C 
BRANCH  25  26
ATOM     26  C7  UNK     1       4.464 -10.935  -7.868  1.00  0.00     0.000 C 
BRANCH  26  27
ATOM     27  C6  UNK     1       3.429 -12.080  -7.799  1.00  0.00     0.000 C 
BRANCH  27  28
ATOM     28  C5  UNK     1       4.087 -13.469  -7.957  1.00  0.00     0.000 C 
BRANCH  28  29
ATOM     29  C4  UNK     1       5.625 -13.374  -8.070  1.00  0.00     0.000 C 
BRANCH  29  30
ATOM     30  C3  UNK     1       6.166 -14.138  -9.300  1.00  0.00    -0.000 C 
BRANCH  30  31
ATOM     31  C2  UNK     1       6.848 -13.194 -10.315  1.00  0.00    -0.005 C 
ATOM     32  C1  UNK     1       7.607 -12.046  -9.621  1.00  0.00     0.005 C 
ENDBRANCH  30  31
ENDBRANCH  29  30
ENDBRANCH  28  29
ENDBRANCH  27  28
ENDBRANCH  26  27
ENDBRANCH  25  26
ENDBRANCH  24  25
ENDBRANCH  22  24
ENDBRANCH  21  22
ENDBRANCH  20  21
ENDBRANCH  19  20
ENDBRANCH  16  19
ENDBRANCH  14  15
ENDBRANCH  13  14
ENDBRANCH  10  13
ENDBRANCH   8   9
BRANCH   8  33
ATOM     33  O4  UNK     1      -2.086  -7.273 -13.213  1.00  0.00    -0.385 OA
ATOM     34  H35 UNK     1      -2.040  -6.338 -12.940  1.00  0.00     0.210 HD
ENDBRANCH   8  33
ENDBRANCH   5   8
ENDBRANCH   4   5
ENDBRANCH   3   4
ENDBRANCH   1   3
BRANCH   1  35
ATOM     35  O7  UNK     1      -3.718  -9.194 -18.473  1.00  0.00    -0.307 OA
ATOM     36  H44 UNK     1      -4.196  -9.388 -17.649  1.00  0.00     0.222 HD
ENDBRANCH   1  35
BRANCH   1  37
ATOM     37  O8  UNK     1      -4.457  -6.812 -18.103  1.00  0.00    -0.195 OA
BRANCH  37  38
ATOM     38  P2  UNK     1      -5.649  -6.512 -19.142  1.00  0.00     0.401 P 
ATOM     39  O9  UNK     1      -5.732  -7.433 -20.303  1.00  0.00    -0.631 OA
BRANCH  38  40
ATOM     40  O10 UNK     1      -6.915  -6.487 -18.150  1.00  0.00    -0.307 OA
ATOM     41  H45 UNK     1      -7.611  -7.057 -18.515  1.00  0.00     0.222 HD
ENDBRANCH  38  40
BRANCH  38  42
ATOM     42  O11 UNK     1      -5.423  -4.946 -19.481  1.00  0.00    -0.294 OA
BRANCH  42  43
ATOM     43  C22 UNK     1      -6.476  -4.090 -19.971  1.00  0.00     0.215 C 
BRANCH  43  44
ATOM     44  C23 UNK     1      -6.994  -3.120 -18.877  1.00  0.00     0.180 C 
ATOM     45  O12 UNK     1      -5.964  -2.947 -17.880  1.00  0.00    -0.353 OA
ATOM     46  C24 UNK     1      -5.112  -1.819 -18.176  1.00  0.00     0.262 C 
ATOM     47  C30 UNK     1      -5.804  -1.066 -19.334  1.00  0.00     0.199 C 
ATOM     48  C31 UNK     1      -7.209  -1.690 -19.415  1.00  0.00     0.197 C 
BRANCH  46  49
ATOM     49  N3  UNK     1      -3.757  -2.287 -18.498  1.00  0.00    -0.294 N 
ATOM     50  C25 UNK     1      -3.121  -3.473 -18.156  1.00  0.00     0.214 A 
ATOM     51  N4  UNK     1      -1.815  -3.609 -18.588  1.00  0.00    -0.236 NA
ATOM     52  C26 UNK     1      -1.663  -2.418 -19.220  1.00  0.00     0.149 A 
ATOM     53  C27 UNK     1      -0.512  -1.948 -19.882  1.00  0.00     0.155 A 
ATOM     54  C29 UNK     1      -2.788  -1.601 -19.188  1.00  0.00     0.167 A 
ATOM     55  N6  UNK     1      -0.514  -0.732 -20.465  1.00  0.00    -0.222 NA
ATOM     56  C28 UNK     1      -1.658  -0.012 -20.379  1.00  0.00     0.237 A 
ATOM     57  N7  UNK     1      -2.805  -0.385 -19.769  1.00  0.00    -0.222 NA
BRANCH  53  58
ATOM     58  N5  UNK     1       0.660  -2.683 -19.973  1.00  0.00    -0.382 N 
ATOM     59  H49 UNK     1       1.432  -2.446 -19.363  1.00  0.00     0.157 HD
ATOM     60  H50 UNK     1       0.842  -3.206 -20.820  1.00  0.00     0.157 HD
ENDBRANCH  53  58
ENDBRANCH  46  49
BRANCH  47  61
ATOM     61  O13 UNK     1      -5.827   0.352 -19.142  1.00  0.00    -0.388 OA
ATOM     62  H52 UNK     1      -5.628   0.765 -20.002  1.00  0.00     0.210 HD
ENDBRANCH  47  61
BRANCH  48  63
ATOM     63  O14 UNK     1      -8.125  -0.983 -18.551  1.00  0.00    -0.286 OA
BRANCH  63  64
ATOM     64  P3  UNK     1      -9.671  -0.762 -18.959  1.00  0.00     0.391 P 
ATOM     65  O15 UNK     1     -10.272   0.573 -18.721  1.00  0.00    -0.632 OA
BRANCH  64  66
ATOM     66  O16 UNK     1      -9.687  -1.251 -20.488  1.00  0.00    -0.307 OA
ATOM     67  H53 UNK     1      -9.768  -2.218 -20.506  1.00  0.00     0.222 HD
ENDBRANCH  64  66
BRANCH  64  68
ATOM     68  O17 UNK     1     -10.375  -2.007 -18.228  1.00  0.00    -0.307 OA
ATOM     69  H54 UNK     1     -10.878  -2.506 -18.893  1.00  0.00     0.222 HD
ENDBRANCH  64  68
ENDBRANCH  63  64
ENDBRANCH  48  63
ENDBRANCH  43  44
ENDBRANCH  42  43
ENDBRANCH  38  42
ENDBRANCH  37  38
ENDBRANCH   1  37
TORSDOF 35
                                                                                                                                                                                      
ENDMDL
MODEL 9
REMARK VINA RESULT:    -6.441      3.758      6.253
REMARK INTER + INTRA:         -22.118
REMARK INTER:                 -17.640
REMARK INTRA:                  -4.477
REMARK UNBOUND:                -3.816
REMARK WARNING: 32 MAX_TORS EXCEEDED!!!
REMARK  35 active torsions:
REMARK  status: ('A' for Active; 'I' for Inactive)
REMARK    1  A    between atoms: C2_2  and  C3_3 
REMARK    2  A    between atoms: C3_3  and  C4_4 
REMARK    3  A    between atoms: C4_4  and  C5_5 
REMARK    4  A    between atoms: C5_5  and  C6_6 
REMARK    5  A    between atoms: C6_6  and  C7_7 
REMARK    6  A    between atoms: C7_7  and  C8_8 
REMARK    7  A    between atoms: C8_8  and  C9_9 
REMARK    8  A    between atoms: C9_9  and  C10_10 
REMARK    9  A    between atoms: C10_10  and  S1_12 
REMARK   10  A    between atoms: S1_12  and  C11_13 
REMARK   11  A    between atoms: C11_13  and  C12_14 
REMARK   12  A    between atoms: C12_14  and  N1_15 
REMARK       I    between atoms: N1_15  and  C13_16 
REMARK   13  A    between atoms: C13_16  and  C14_18 
REMARK   14  A    between atoms: C14_18  and  C15_19 
REMARK   15  A    between atoms: C15_19  and  N2_20 
REMARK       I    between atoms: N2_20  and  C16_21 
REMARK   16  A    between atoms: C16_21  and  C17_23 
REMARK   17  A    between atoms: C17_23  and  O4_24 
REMARK   18  A    between atoms: C17_23  and  C18_25 
REMARK   19  A    between atoms: C18_25  and  C21_28 
REMARK   20  A    between atoms: C21_28  and  O5_29 
REMARK   21  A    between atoms: O5_29  and  P1_30 
REMARK   22  A    between atoms: P1_30  and  O7_32 
REMARK   23  A    between atoms: P1_30  and  O8_33 
REMARK   24  A    between atoms: O8_33  and  P2_34 
REMARK   25  A    between atoms: P2_34  and  O10_36 
REMARK   26  A    between atoms: P2_34  and  O11_37 
REMARK   27  A    between atoms: O11_37  and  C22_38 
REMARK   28  A    between atoms: C22_38  and  C23_39 
REMARK   29  A    between atoms: C24_41  and  N3_42 
REMARK   30  A    between atoms: C27_46  and  N5_47 
REMARK   31  A    between atoms: C30_52  and  O13_53 
REMARK   32  A    between atoms: C31_54  and  O14_55 
REMARK   33  A    between atoms: O14_55  and  P3_56 
REMARK   34  A    between atoms: P3_56  and  O16_58 
REMARK   35  A    between atoms: P3_56  and  O17_59 
ROOT
ATOM      1  P1  UNK     1      -2.124  -6.459 -15.927  1.00  0.00     0.401 P 
ATOM      2  O6  UNK     1      -3.122  -7.261 -16.679  1.00  0.00    -0.631 OA
ENDROOT
BRANCH   1   3
ATOM      3  O5  UNK     1      -0.643  -7.093 -15.851  1.00  0.00    -0.296 OA
BRANCH   3   4
ATOM      4  C21 UNK     1       0.322  -6.572 -14.921  1.00  0.00     0.192 C 
BRANCH   4   5
ATOM      5  C18 UNK     1       1.146  -7.729 -14.285  1.00  0.00     0.009 C 
ATOM      6  C19 UNK     1       2.664  -7.409 -14.397  1.00  0.00     0.020 C 
ATOM      7  C20 UNK     1       0.849  -9.049 -15.053  1.00  0.00     0.020 C 
BRANCH   5   8
ATOM      8  C17 UNK     1       0.697  -7.877 -12.792  1.00  0.00     0.219 C 
BRANCH   8   9
ATOM      9  C16 UNK     1       1.628  -7.185 -11.778  1.00  0.00     0.247 C 
ATOM     10  N2  UNK     1       2.576  -8.011 -11.196  1.00  0.00    -0.358 N 
ATOM     11  H33 UNK     1       2.602  -8.982 -11.478  1.00  0.00     0.162 HD
ATOM     12  O3  UNK     1       1.514  -6.009 -11.472  1.00  0.00    -0.271 OA
BRANCH  10  13
ATOM     13  C15 UNK     1       3.525  -7.547 -10.176  1.00  0.00     0.132 C 
BRANCH  13  14
ATOM     14  C14 UNK     1       4.986  -7.647 -10.663  1.00  0.00     0.122 C 
BRANCH  14  15
ATOM     15  C13 UNK     1       5.253  -6.845 -11.941  1.00  0.00     0.219 C 
ATOM     16  N1  UNK     1       6.041  -7.500 -12.870  1.00  0.00    -0.360 N 
ATOM     17  H28 UNK     1       6.377  -8.428 -12.645  1.00  0.00     0.162 HD
ATOM     18  O2  UNK     1       4.806  -5.728 -12.135  1.00  0.00    -0.274 OA
BRANCH  16  19
ATOM     19  C12 UNK     1       6.403  -6.919 -14.168  1.00  0.00     0.133 C 
BRANCH  19  20
ATOM     20  C11 UNK     1       6.686  -8.008 -15.217  1.00  0.00     0.102 C 
BRANCH  20  21
ATOM     21  S1  UNK     1       8.274  -8.869 -14.853  1.00  0.00    -0.091 SA
BRANCH  21  22
ATOM     22  C10 UNK     1       7.817 -10.576 -15.221  1.00  0.00     0.186 C 
ATOM     23  O1  UNK     1       8.435 -11.277 -16.004  1.00  0.00    -0.286 OA
BRANCH  22  24
ATOM     24  C9  UNK     1       6.582 -11.045 -14.445  1.00  0.00     0.091 C 
BRANCH  24  25
ATOM     25  C8  UNK     1       6.920 -11.686 -13.079  1.00  0.00     0.008 C 
BRANCH  25  26
ATOM     26  C7  UNK     1       6.553 -10.763 -11.895  1.00  0.00     0.000 C 
BRANCH  26  27
ATOM     27  C6  UNK     1       7.505 -10.957 -10.693  1.00  0.00     0.000 C 
BRANCH  27  28
ATOM     28  C5  UNK     1       6.854 -11.785  -9.564  1.00  0.00     0.000 C 
BRANCH  28  29
ATOM     29  C4  UNK     1       6.189 -10.888  -8.495  1.00  0.00     0.000 C 
BRANCH  29  30
ATOM     30  C3  UNK     1       4.659 -10.791  -8.686  1.00  0.00    -0.000 C 
BRANCH  30  31
ATOM     31  C2  UNK     1       3.888 -11.541  -7.578  1.00  0.00    -0.005 C 
ATOM     32  C1  UNK     1       3.840 -13.061  -7.830  1.00  0.00     0.005 C 
ENDBRANCH  30  31
ENDBRANCH  29  30
ENDBRANCH  28  29
ENDBRANCH  27  28
ENDBRANCH  26  27
ENDBRANCH  25  26
ENDBRANCH  24  25
ENDBRANCH  22  24
ENDBRANCH  21  22
ENDBRANCH  20  21
ENDBRANCH  19  20
ENDBRANCH  16  19
ENDBRANCH  14  15
ENDBRANCH  13  14
ENDBRANCH  10  13
ENDBRANCH   8   9
BRANCH   8  33
ATOM     33  O4  UNK     1      -0.636  -7.393 -12.593  1.00  0.00    -0.385 OA
ATOM     34  H35 UNK     1      -0.560  -6.453 -12.343  1.00  0.00     0.210 HD
ENDBRANCH   8  33
ENDBRANCH   5   8
ENDBRANCH   4   5
ENDBRANCH   3   4
ENDBRANCH   1   3
BRANCH   1  35
ATOM     35  O7  UNK     1      -2.418  -6.187 -14.368  1.00  0.00    -0.307 OA
ATOM     36  H44 UNK     1      -3.261  -6.608 -14.132  1.00  0.00     0.222 HD
ENDBRANCH   1  35
BRANCH   1  37
ATOM     37  O8  UNK     1      -1.804  -4.990 -16.500  1.00  0.00    -0.195 OA
BRANCH  37  38
ATOM     38  P2  UNK     1      -1.285  -4.639 -17.982  1.00  0.00     0.401 P 
ATOM     39  O9  UNK     1       0.012  -3.921 -18.052  1.00  0.00    -0.631 OA
BRANCH  38  40
ATOM     40  O10 UNK     1      -1.343  -6.090 -18.673  1.00  0.00    -0.307 OA
ATOM     41  H45 UNK     1      -1.237  -6.769 -17.986  1.00  0.00     0.222 HD
ENDBRANCH  38  40
BRANCH  38  42
ATOM     42  O11 UNK     1      -2.562  -3.881 -18.623  1.00  0.00    -0.294 OA
BRANCH  42  43
ATOM     43  C22 UNK     1      -3.837  -3.789 -17.954  1.00  0.00     0.215 C 
BRANCH  43  44
ATOM     44  C23 UNK     1      -4.814  -4.907 -18.405  1.00  0.00     0.180 C 
ATOM     45  O12 UNK     1      -6.117  -4.642 -17.842  1.00  0.00    -0.353 OA
ATOM     46  C24 UNK     1      -6.940  -3.859 -18.734  1.00  0.00     0.262 C 
ATOM     47  C30 UNK     1      -6.179  -3.823 -20.078  1.00  0.00     0.199 C 
ATOM     48  C31 UNK     1      -5.073  -4.882 -19.925  1.00  0.00     0.197 C 
BRANCH  46  49
ATOM     49  N3  UNK     1      -7.182  -2.531 -18.154  1.00  0.00    -0.294 N 
ATOM     50  C25 UNK     1      -8.197  -2.101 -17.308  1.00  0.00     0.214 A 
ATOM     51  N4  UNK     1      -8.169  -0.765 -16.956  1.00  0.00    -0.236 NA
ATOM     52  C26 UNK     1      -7.070  -0.373 -17.648  1.00  0.00     0.149 A 
ATOM     53  C27 UNK     1      -6.513   0.919 -17.697  1.00  0.00     0.155 A 
ATOM     54  C29 UNK     1      -6.456  -1.388 -18.375  1.00  0.00     0.167 A 
ATOM     55  N6  UNK     1      -5.410   1.155 -18.437  1.00  0.00    -0.222 NA
ATOM     56  C28 UNK     1      -4.885   0.103 -19.109  1.00  0.00     0.237 A 
ATOM     57  N7  UNK     1      -5.351  -1.167 -19.117  1.00  0.00    -0.222 NA
BRANCH  53  58
ATOM     58  N5  UNK     1      -7.046   1.998 -17.009  1.00  0.00    -0.382 N 
ATOM     59  H49 UNK     1      -7.192   1.915 -16.011  1.00  0.00     0.157 HD
ATOM     60  H50 UNK     1      -7.562   2.698 -17.526  1.00  0.00     0.157 HD
ENDBRANCH  53  58
ENDBRANCH  46  49
BRANCH  47  61
ATOM     61  O13 UNK     1      -7.030  -4.054 -21.206  1.00  0.00    -0.388 OA
ATOM     62  H52 UNK     1      -6.518  -3.835 -22.006  1.00  0.00     0.210 HD
ENDBRANCH  47  61
BRANCH  48  63
ATOM     63  O14 UNK     1      -5.551  -6.175 -20.354  1.00  0.00    -0.286 OA
BRANCH  63  64
ATOM     64  P3  UNK     1      -4.661  -7.509 -20.168  1.00  0.00     0.391 P 
ATOM     65  O15 UNK     1      -3.188  -7.389 -20.301  1.00  0.00    -0.632 OA
BRANCH  64  66
ATOM     66  O16 UNK     1      -5.172  -8.057 -18.748  1.00  0.00    -0.307 OA
ATOM     67  H53 UNK     1      -4.567  -8.754 -18.446  1.00  0.00     0.222 HD
ENDBRANCH  64  66
BRANCH  64  68
ATOM     68  O17 UNK     1      -5.392  -8.524 -21.173  1.00  0.00    -0.307 OA
ATOM     69  H54 UNK     1      -5.051  -8.364 -22.069  1.00  0.00     0.222 HD
ENDBRANCH  64  68
ENDBRANCH  63  64
ENDBRANCH  48  63
ENDBRANCH  43  44
ENDBRANCH  42  43
ENDBRANCH  38  42
ENDBRANCH  37  38
ENDBRANCH   1  37
TORSDOF 35
                                                                                                                                                                                      
ENDMDL
MODEL 10
REMARK VINA RESULT:    -6.363      1.793      2.629
REMARK INTER + INTRA:         -21.897
REMARK INTER:                 -17.865
REMARK INTRA:                  -4.032
REMARK UNBOUND:                -3.816
REMARK WARNING: 32 MAX_TORS EXCEEDED!!!
REMARK  35 active torsions:
REMARK  status: ('A' for Active; 'I' for Inactive)
REMARK    1  A    between atoms: C2_2  and  C3_3 
REMARK    2  A    between atoms: C3_3  and  C4_4 
REMARK    3  A    between atoms: C4_4  and  C5_5 
REMARK    4  A    between atoms: C5_5  and  C6_6 
REMARK    5  A    between atoms: C6_6  and  C7_7 
REMARK    6  A    between atoms: C7_7  and  C8_8 
REMARK    7  A    between atoms: C8_8  and  C9_9 
REMARK    8  A    between atoms: C9_9  and  C10_10 
REMARK    9  A    between atoms: C10_10  and  S1_12 
REMARK   10  A    between atoms: S1_12  and  C11_13 
REMARK   11  A    between atoms: C11_13  and  C12_14 
REMARK   12  A    between atoms: C12_14  and  N1_15 
REMARK       I    between atoms: N1_15  and  C13_16 
REMARK   13  A    between atoms: C13_16  and  C14_18 
REMARK   14  A    between atoms: C14_18  and  C15_19 
REMARK   15  A    between atoms: C15_19  and  N2_20 
REMARK       I    between atoms: N2_20  and  C16_21 
REMARK   16  A    between atoms: C16_21  and  C17_23 
REMARK   17  A    between atoms: C17_23  and  O4_24 
REMARK   18  A    between atoms: C17_23  and  C18_25 
REMARK   19  A    between atoms: C18_25  and  C21_28 
REMARK   20  A    between atoms: C21_28  and  O5_29 
REMARK   21  A    between atoms: O5_29  and  P1_30 
REMARK   22  A    between atoms: P1_30  and  O7_32 
REMARK   23  A    between atoms: P1_30  and  O8_33 
REMARK   24  A    between atoms: O8_33  and  P2_34 
REMARK   25  A    between atoms: P2_34  and  O10_36 
REMARK   26  A    between atoms: P2_34  and  O11_37 
REMARK   27  A    between atoms: O11_37  and  C22_38 
REMARK   28  A    between atoms: C22_38  and  C23_39 
REMARK   29  A    between atoms: C24_41  and  N3_42 
REMARK   30  A    between atoms: C27_46  and  N5_47 
REMARK   31  A    between atoms: C30_52  and  O13_53 
REMARK   32  A    between atoms: C31_54  and  O14_55 
REMARK   33  A    between atoms: O14_55  and  P3_56 
REMARK   34  A    between atoms: P3_56  and  O16_58 
REMARK   35  A    between atoms: P3_56  and  O17_59 
ROOT
ATOM      1  P1  UNK     1      -5.090  -5.877 -18.756  1.00  0.00     0.401 P 
ATOM      2  O6  UNK     1      -4.512  -5.800 -20.121  1.00  0.00    -0.631 OA
ENDROOT
BRANCH   1   3
ATOM      3  O5  UNK     1      -4.049  -6.255 -17.583  1.00  0.00    -0.296 OA
BRANCH   3   4
ATOM      4  C21 UNK     1      -2.633  -6.222 -17.832  1.00  0.00     0.192 C 
BRANCH   4   5
ATOM      5  C18 UNK     1      -1.853  -5.964 -16.510  1.00  0.00     0.009 C 
ATOM      6  C19 UNK     1      -2.727  -5.104 -15.552  1.00  0.00     0.020 C 
ATOM      7  C20 UNK     1      -0.543  -5.190 -16.833  1.00  0.00     0.020 C 
BRANCH   5   8
ATOM      8  C17 UNK     1      -1.502  -7.354 -15.879  1.00  0.00     0.219 C 
BRANCH   8   9
ATOM      9  C16 UNK     1      -1.237  -7.312 -14.362  1.00  0.00     0.247 C 
ATOM     10  N2  UNK     1       0.053  -7.650 -13.984  1.00  0.00    -0.358 N 
ATOM     11  H33 UNK     1       0.719  -7.881 -14.710  1.00  0.00     0.162 HD
ATOM     12  O3  UNK     1      -2.105  -7.048 -13.546  1.00  0.00    -0.271 OA
BRANCH  10  13
ATOM     13  C15 UNK     1       0.488  -7.710 -12.583  1.00  0.00     0.132 C 
BRANCH  13  14
ATOM     14  C14 UNK     1       1.564  -6.648 -12.270  1.00  0.00     0.122 C 
BRANCH  14  15
ATOM     15  C13 UNK     1       2.886  -6.892 -13.005  1.00  0.00     0.219 C 
ATOM     16  N1  UNK     1       4.012  -6.539 -12.283  1.00  0.00    -0.360 N 
ATOM     17  H28 UNK     1       3.886  -6.154 -11.355  1.00  0.00     0.162 HD
ATOM     18  O2  UNK     1       2.950  -7.365 -14.127  1.00  0.00    -0.274 OA
BRANCH  16  19
ATOM     19  C12 UNK     1       5.377  -6.707 -12.793  1.00  0.00     0.133 C 
BRANCH  19  20
ATOM     20  C11 UNK     1       5.951  -8.088 -12.432  1.00  0.00     0.102 C 
BRANCH  20  21
ATOM     21  S1  UNK     1       6.980  -8.749 -13.810  1.00  0.00    -0.091 SA
BRANCH  21  22
ATOM     22  C10 UNK     1       6.925 -10.516 -13.445  1.00  0.00     0.186 C 
ATOM     23  O1  UNK     1       6.335 -11.322 -14.144  1.00  0.00    -0.286 OA
BRANCH  22  24
ATOM     24  C9  UNK     1       7.700 -10.889 -12.177  1.00  0.00     0.091 C 
BRANCH  24  25
ATOM     25  C8  UNK     1       6.791 -11.358 -11.017  1.00  0.00     0.008 C 
BRANCH  25  26
ATOM     26  C7  UNK     1       7.592 -11.632  -9.724  1.00  0.00     0.000 C 
BRANCH  26  27
ATOM     27  C6  UNK     1       6.764 -12.423  -8.687  1.00  0.00     0.000 C 
BRANCH  27  28
ATOM     28  C5  UNK     1       6.960 -13.949  -8.829  1.00  0.00     0.000 C 
BRANCH  28  29
ATOM     29  C4  UNK     1       5.770 -14.623  -9.548  1.00  0.00     0.000 C 
BRANCH  29  30
ATOM     30  C3  UNK     1       6.233 -15.701 -10.553  1.00  0.00    -0.000 C 
BRANCH  30  31
ATOM     31  C2  UNK     1       6.043 -15.249 -12.017  1.00  0.00    -0.005 C 
ATOM     32  C1  UNK     1       7.319 -14.605 -12.596  1.00  0.00     0.005 C 
ENDBRANCH  30  31
ENDBRANCH  29  30
ENDBRANCH  28  29
ENDBRANCH  27  28
ENDBRANCH  26  27
ENDBRANCH  25  26
ENDBRANCH  24  25
ENDBRANCH  22  24
ENDBRANCH  21  22
ENDBRANCH  20  21
ENDBRANCH  19  20
ENDBRANCH  16  19
ENDBRANCH  14  15
ENDBRANCH  13  14
ENDBRANCH  10  13
ENDBRANCH   8   9
BRANCH   8  33
ATOM     33  O4  UNK     1      -2.524  -8.323 -16.138  1.00  0.00    -0.385 OA
ATOM     34  H35 UNK     1      -3.338  -7.826 -16.341  1.00  0.00     0.210 HD
ENDBRANCH   8  33
ENDBRANCH   5   8
ENDBRANCH   4   5
ENDBRANCH   3   4
ENDBRANCH   1   3
BRANCH   1  35
ATOM     35  O7  UNK     1      -6.243  -6.971 -18.502  1.00  0.00    -0.307 OA
ATOM     36  H44 UNK     1      -6.922  -6.580 -17.928  1.00  0.00     0.222 HD
ENDBRANCH   1  35
BRANCH   1  37
ATOM     37  O8  UNK     1      -5.737  -4.524 -18.173  1.00  0.00    -0.195 OA
BRANCH  37  38
ATOM     38  P2  UNK     1      -7.028  -3.759 -18.754  1.00  0.00     0.401 P 
ATOM     39  O9  UNK     1      -6.928  -3.320 -20.169  1.00  0.00    -0.631 OA
BRANCH  38  40
ATOM     40  O10 UNK     1      -8.187  -4.819 -18.409  1.00  0.00    -0.307 OA
ATOM     41  H45 UNK     1      -8.442  -5.282 -19.224  1.00  0.00     0.222 HD
ENDBRANCH  38  40
BRANCH  38  42
ATOM     42  O11 UNK     1      -7.262  -2.595 -17.655  1.00  0.00    -0.294 OA
BRANCH  42  43
ATOM     43  C22 UNK     1      -7.793  -1.296 -17.989  1.00  0.00     0.215 C 
BRANCH  43  44
ATOM     44  C23 UNK     1      -7.305  -0.198 -17.007  1.00  0.00     0.180 C 
ATOM     45  O12 UNK     1      -5.974  -0.532 -16.556  1.00  0.00    -0.353 OA
ATOM     46  C24 UNK     1      -4.957   0.062 -17.392  1.00  0.00     0.262 C 
ATOM     47  C30 UNK     1      -5.702   1.054 -18.313  1.00  0.00     0.199 C 
ATOM     48  C31 UNK     1      -7.110   1.166 -17.702  1.00  0.00     0.197 C 
BRANCH  46  49
ATOM     49  N3  UNK     1      -4.229  -0.988 -18.117  1.00  0.00    -0.294 N 
ATOM     50  C25 UNK     1      -3.367  -1.966 -17.637  1.00  0.00     0.214 A 
ATOM     51  N4  UNK     1      -2.806  -2.800 -18.586  1.00  0.00    -0.236 NA
ATOM     52  C26 UNK     1      -3.364  -2.274 -19.705  1.00  0.00     0.149 A 
ATOM     53  C27 UNK     1      -3.172  -2.703 -21.033  1.00  0.00     0.155 A 
ATOM     54  C29 UNK     1      -4.212  -1.196 -19.473  1.00  0.00     0.167 A 
ATOM     55  N6  UNK     1      -3.801  -2.073 -22.047  1.00  0.00    -0.222 NA
ATOM     56  C28 UNK     1      -4.605  -1.034 -21.719  1.00  0.00     0.237 A 
ATOM     57  N7  UNK     1      -4.848  -0.559 -20.477  1.00  0.00    -0.222 NA
BRANCH  53  58
ATOM     58  N5  UNK     1      -2.351  -3.767 -21.370  1.00  0.00    -0.382 N 
ATOM     59  H49 UNK     1      -2.746  -4.543 -21.885  1.00  0.00     0.157 HD
ATOM     60  H50 UNK     1      -1.494  -3.905 -20.849  1.00  0.00     0.157 HD
ENDBRANCH  53  58
ENDBRANCH  46  49
BRANCH  47  61
ATOM     61  O13 UNK     1      -5.036   2.315 -18.428  1.00  0.00    -0.388 OA
ATOM     62  H52 UNK     1      -5.553   2.966 -17.918  1.00  0.00     0.210 HD
ENDBRANCH  47  61
BRANCH  48  63
ATOM     63  O14 UNK     1      -7.150   2.219 -16.716  1.00  0.00    -0.286 OA
BRANCH  63  64
ATOM     64  P3  UNK     1      -8.538   2.699 -16.047  1.00  0.00     0.391 P 
ATOM     65  O15 UNK     1      -9.794   2.457 -16.799  1.00  0.00    -0.632 OA
BRANCH  64  66
ATOM     66  O16 UNK     1      -8.470   2.009 -14.599  1.00  0.00    -0.307 OA
ATOM     67  H53 UNK     1      -8.237   1.073 -14.710  1.00  0.00     0.222 HD
ENDBRANCH  64  66
BRANCH  64  68
ATOM     68  O17 UNK     1      -8.205   4.226 -15.679  1.00  0.00    -0.307 OA
ATOM     69  H54 UNK     1      -8.867   4.794 -16.108  1.00  0.00     0.222 HD
ENDBRANCH  64  68
ENDBRANCH  63  64
ENDBRANCH  48  63
ENDBRANCH  43  44
ENDBRANCH  42  43
ENDBRANCH  38  42
ENDBRANCH  37  38
ENDBRANCH   1  37
TORSDOF 35
                                                                                                                                                                                      
ENDMDL
