MODEL 1
REMARK VINA RESULT:    -7.018      0.000      0.000
REMARK INTER + INTRA:         -24.520
REMARK INTER:                 -19.941
REMARK INTRA:                  -4.579
REMARK UNBOUND:                -4.579
REMARK WARNING: 32 MAX_TORS EXCEEDED!!!
REMARK  35 active torsions:
REMARK  status: ('A' for Active; 'I' for Inactive)
REMARK       I    between atoms: C2_2  and  N1_4 
REMARK    1  A    between atoms: N1_4  and  C3_5 
REMARK    2  A    between atoms: C3_5  and  C4_6 
REMARK    3  A    between atoms: C3_5  and  C31_62 
REMARK    4  A    between atoms: C4_6  and  C5_7 
REMARK    5  A    between atoms: C5_7  and  C6_8 
REMARK    6  A    between atoms: C6_8  and  C7_9 
REMARK    7  A    between atoms: C7_9  and  N2_10 
REMARK       I    between atoms: N2_10  and  C8_11 
REMARK    8  A    between atoms: C8_11  and  C9_13 
REMARK    9  A    between atoms: C9_13  and  S1_14 
REMARK   10  A    between atoms: S1_14  and  C10_15 
REMARK   11  A    between atoms: C10_15  and  C11_16 
REMARK   12  A    between atoms: C11_16  and  N3_17 
REMARK       I    between atoms: N3_17  and  C12_18 
REMARK   13  A    between atoms: C12_18  and  C13_20 
REMARK   14  A    between atoms: C13_20  and  C14_21 
REMARK   15  A    between atoms: C14_21  and  N4_22 
REMARK       I    between atoms: N4_22  and  C15_23 
REMARK   16  A    between atoms: C15_23  and  C16_25 
REMARK   17  A    between atoms: C16_25  and  O5_26 
REMARK   18  A    between atoms: C16_25  and  C17_27 
REMARK   19  A    between atoms: C17_27  and  C20_30 
REMARK   20  A    between atoms: C20_30  and  O6_31 
REMARK   21  A    between atoms: O6_31  and  P1_32 
REMARK   22  A    between atoms: P1_32  and  O8_34 
REMARK   23  A    between atoms: P1_32  and  O9_35 
REMARK   24  A    between atoms: O9_35  and  P2_36 
REMARK   25  A    between atoms: P2_36  and  O11_38 
REMARK   26  A    between atoms: P2_36  and  O12_39 
REMARK   27  A    between atoms: O12_39  and  C21_40 
REMARK   28  A    between atoms: C21_40  and  C22_41 
REMARK   29  A    between atoms: C23_43  and  N5_44 
REMARK   30  A    between atoms: C26_48  and  N7_49 
REMARK   31  A    between atoms: C29_54  and  O14_55 
REMARK   32  A    between atoms: C30_56  and  O15_57 
REMARK   33  A    between atoms: O15_57  and  P3_58 
REMARK   34  A    between atoms: P3_58  and  O17_60 
REMARK   35  A    between atoms: P3_58  and  O18_61 
REMARK       I    between atoms: C31_62  and  N10_63 
ROOT
ATOM      1  C17 UNK     1      -2.006  -6.098 -17.044  1.00  0.00     0.009 C 
ATOM      2  C18 UNK     1      -0.665  -5.755 -17.751  1.00  0.00     0.020 C 
ATOM      3  C19 UNK     1      -2.293  -7.619 -17.211  1.00  0.00     0.020 C 
ENDROOT
BRANCH   1   4
ATOM      4  C16 UNK     1      -1.918  -5.691 -15.535  1.00  0.00     0.219 C 
BRANCH   4   5
ATOM      5  C15 UNK     1      -1.390  -6.804 -14.607  1.00  0.00     0.247 C 
ATOM      6  N4  UNK     1      -0.038  -7.079 -14.729  1.00  0.00    -0.358 N 
ATOM      7  H31 UNK     1       0.494  -6.572 -15.426  1.00  0.00     0.162 HD
ATOM      8  O4  UNK     1      -2.082  -7.329 -13.751  1.00  0.00    -0.271 OA
BRANCH   6   9
ATOM      9  C14 UNK     1       0.687  -7.923 -13.769  1.00  0.00     0.132 C 
BRANCH   9  10
ATOM     10  C13 UNK     1       0.752  -7.291 -12.364  1.00  0.00     0.122 C 
BRANCH  10  11
ATOM     11  C12 UNK     1       2.188  -6.997 -11.915  1.00  0.00     0.219 C 
ATOM     12  N3  UNK     1       2.814  -8.035 -11.247  1.00  0.00    -0.360 N 
ATOM     13  H26 UNK     1       2.303  -8.896 -11.108  1.00  0.00     0.162 HD
ATOM     14  O3  UNK     1       2.735  -5.926 -12.112  1.00  0.00    -0.274 OA
BRANCH  12  15
ATOM     15  C11 UNK     1       4.173  -7.923 -10.705  1.00  0.00     0.132 C 
BRANCH  15  16
ATOM     16  C10 UNK     1       4.563  -9.150  -9.862  1.00  0.00     0.094 C 
BRANCH  16  17
ATOM     17  S1  UNK     1       6.389  -9.384  -9.885  1.00  0.00    -0.158 SA
BRANCH  17  18
ATOM     18  C9  UNK     1       6.492 -11.185  -9.493  1.00  0.00     0.176 C 
BRANCH  18  19
ATOM     19  C8  UNK     1       7.136 -11.978 -10.635  1.00  0.00     0.226 C 
ATOM     20  N2  UNK     1       7.663 -11.197 -11.649  1.00  0.00    -0.360 N 
ATOM     21  H19 UNK     1       7.600 -10.191 -11.566  1.00  0.00     0.162 HD
ATOM     22  O2  UNK     1       7.169 -13.195 -10.664  1.00  0.00    -0.273 OA
BRANCH  20  23
ATOM     23  C7  UNK     1       8.322 -11.765 -12.832  1.00  0.00     0.122 C 
BRANCH  23  24
ATOM     24  C6  UNK     1       7.414 -11.710 -14.076  1.00  0.00     0.020 C 
BRANCH  24  25
ATOM     25  C5  UNK     1       6.311 -10.639 -13.932  1.00  0.00     0.004 C 
BRANCH  25  26
ATOM     26  C4  UNK     1       6.381  -9.574 -15.052  1.00  0.00     0.035 C 
BRANCH  26  27
ATOM     27  C3  UNK     1       6.659  -8.139 -14.533  1.00  0.00     0.176 C 
BRANCH  27  28
ATOM     28  N1  UNK     1       7.457  -8.143 -13.293  1.00  0.00    -0.348 N 
ATOM     29  C2  UNK     1       8.830  -7.976 -13.255  1.00  0.00     0.214 C 
ATOM     30  C1  UNK     1       9.430  -7.966 -11.853  1.00  0.00     0.117 C 
ATOM     31  O1  UNK     1       9.508  -7.827 -14.256  1.00  0.00    -0.274 OA
ATOM     32  H10 UNK     1       6.961  -8.228 -12.415  1.00  0.00     0.163 HD
ENDBRANCH  27  28
BRANCH  27  33
ATOM     33  C31 UNK     1       5.330  -7.407 -14.275  1.00  0.00     0.238 C 
ATOM     34  N10 UNK     1       5.426  -6.256 -13.523  1.00  0.00    -0.368 N 
ATOM     35  H52 UNK     1       6.321  -5.973 -13.144  1.00  0.00     0.159 HD
ATOM     36  H53 UNK     1       4.589  -5.718 -13.338  1.00  0.00     0.159 HD
ATOM     37  O19 UNK     1       4.266  -7.750 -14.760  1.00  0.00    -0.271 OA
ENDBRANCH  27  33
ENDBRANCH  26  27
ENDBRANCH  25  26
ENDBRANCH  24  25
ENDBRANCH  23  24
ENDBRANCH  20  23
ENDBRANCH  18  19
ENDBRANCH  17  18
ENDBRANCH  16  17
ENDBRANCH  15  16
ENDBRANCH  12  15
ENDBRANCH  10  11
ENDBRANCH   9  10
ENDBRANCH   6   9
ENDBRANCH   4   5
BRANCH   4  38
ATOM     38  O5  UNK     1      -3.183  -5.246 -15.034  1.00  0.00    -0.385 OA
ATOM     39  H32 UNK     1      -3.775  -5.157 -15.805  1.00  0.00     0.210 HD
ENDBRANCH   4  38
ENDBRANCH   1   4
BRANCH   1  40
ATOM     40  C20 UNK     1      -3.158  -5.281 -17.700  1.00  0.00     0.192 C 
BRANCH  40  41
ATOM     41  O6  UNK     1      -4.402  -5.995 -17.600  1.00  0.00    -0.296 OA
BRANCH  41  42
ATOM     42  P1  UNK     1      -5.447  -5.973 -18.828  1.00  0.00     0.401 P 
ATOM     43  O7  UNK     1      -4.872  -6.313 -20.154  1.00  0.00    -0.631 OA
BRANCH  42  44
ATOM     44  O8  UNK     1      -6.625  -6.915 -18.268  1.00  0.00    -0.307 OA
ATOM     45  H41 UNK     1      -6.783  -6.692 -17.337  1.00  0.00     0.222 HD
ENDBRANCH  42  44
BRANCH  42  46
ATOM     46  O9  UNK     1      -6.081  -4.504 -18.671  1.00  0.00    -0.195 OA
BRANCH  46  47
ATOM     47  P2  UNK     1      -7.528  -4.045 -19.199  1.00  0.00     0.401 P 
ATOM     48  O10 UNK     1      -7.900  -4.525 -20.554  1.00  0.00    -0.631 OA
BRANCH  47  49
ATOM     49  O11 UNK     1      -8.462  -4.536 -17.986  1.00  0.00    -0.307 OA
ATOM     50  H42 UNK     1      -9.315  -4.077 -18.044  1.00  0.00     0.222 HD
ENDBRANCH  47  49
BRANCH  47  51
ATOM     51  O12 UNK     1      -7.468  -2.443 -18.983  1.00  0.00    -0.294 OA
BRANCH  51  52
ATOM     52  C21 UNK     1      -8.277  -1.752 -18.010  1.00  0.00     0.215 C 
BRANCH  52  53
ATOM     53  C22 UNK     1      -7.423  -0.925 -17.018  1.00  0.00     0.180 C 
ATOM     54  O13 UNK     1      -6.028  -1.242 -17.239  1.00  0.00    -0.353 OA
ATOM     55  C23 UNK     1      -5.231  -0.051 -17.374  1.00  0.00     0.262 C 
ATOM     56  C29 UNK     1      -6.217   0.970 -17.956  1.00  0.00     0.199 C 
ATOM     57  C30 UNK     1      -7.539   0.600 -17.268  1.00  0.00     0.197 C 
BRANCH  55  58
ATOM     58  N5  UNK     1      -4.062  -0.322 -18.219  1.00  0.00    -0.294 N 
ATOM     59  C24 UNK     1      -3.786  -1.418 -19.023  1.00  0.00     0.214 A 
ATOM     60  N6  UNK     1      -2.581  -1.391 -19.699  1.00  0.00    -0.236 NA
ATOM     61  C25 UNK     1      -2.106  -0.196 -19.262  1.00  0.00     0.149 A 
ATOM     62  C26 UNK     1      -0.882   0.410 -19.605  1.00  0.00     0.155 A 
ATOM     63  C28 UNK     1      -2.952   0.471 -18.381  1.00  0.00     0.167 A 
ATOM     64  N8  UNK     1      -0.549   1.610 -19.084  1.00  0.00    -0.222 NA
ATOM     65  C27 UNK     1      -1.439   2.179 -18.237  1.00  0.00     0.237 A 
ATOM     66  N9  UNK     1      -2.634   1.671 -17.856  1.00  0.00    -0.222 NA
BRANCH  62  67
ATOM     67  N7  UNK     1       0.029  -0.170 -20.472  1.00  0.00    -0.382 N 
ATOM     68  H46 UNK     1       0.400  -1.084 -20.248  1.00  0.00     0.157 HD
ATOM     69  H47 UNK     1       0.538   0.425 -21.113  1.00  0.00     0.157 HD
ENDBRANCH  62  67
ENDBRANCH  55  58
BRANCH  56  70
ATOM     70  O14 UNK     1      -5.825   2.329 -17.734  1.00  0.00    -0.388 OA
ATOM     71  H49 UNK     1      -6.483   2.898 -18.175  1.00  0.00     0.210 HD
ENDBRANCH  56  70
BRANCH  57  72
ATOM     72  O15 UNK     1      -7.645   1.279 -15.998  1.00  0.00    -0.286 OA
BRANCH  72  73
ATOM     73  P3  UNK     1      -8.667   2.511 -15.794  1.00  0.00     0.391 P 
ATOM     74  O16 UNK     1      -9.941   2.480 -16.553  1.00  0.00    -0.632 OA
BRANCH  73  75
ATOM     75  O17 UNK     1      -8.824   2.558 -14.197  1.00  0.00    -0.307 OA
ATOM     76  H50 UNK     1      -9.604   3.091 -13.975  1.00  0.00     0.222 HD
ENDBRANCH  73  75
BRANCH  73  77
ATOM     77  O18 UNK     1      -7.706   3.771 -16.056  1.00  0.00    -0.307 OA
ATOM     78  H51 UNK     1      -7.050   3.521 -16.729  1.00  0.00     0.222 HD
ENDBRANCH  73  77
ENDBRANCH  72  73
ENDBRANCH  57  72
ENDBRANCH  52  53
ENDBRANCH  51  52
ENDBRANCH  47  51
ENDBRANCH  46  47
ENDBRANCH  42  46
ENDBRANCH  41  42
ENDBRANCH  40  41
ENDBRANCH   1  40
TORSDOF 35
                                                                                                                                                                                                  
ENDMDL
MODEL 2
REMARK VINA RESULT:    -6.970      1.841      3.473
REMARK INTER + INTRA:         -24.384
REMARK INTER:                 -20.683
REMARK INTRA:                  -3.701
REMARK UNBOUND:                -4.579
REMARK WARNING: 32 MAX_TORS EXCEEDED!!!
REMARK  35 active torsions:
REMARK  status: ('A' for Active; 'I' for Inactive)
REMARK       I    between atoms: C2_2  and  N1_4 
REMARK    1  A    between atoms: N1_4  and  C3_5 
REMARK    2  A    between atoms: C3_5  and  C4_6 
REMARK    3  A    between atoms: C3_5  and  C31_62 
REMARK    4  A    between atoms: C4_6  and  C5_7 
REMARK    5  A    between atoms: C5_7  and  C6_8 
REMARK    6  A    between atoms: C6_8  and  C7_9 
REMARK    7  A    between atoms: C7_9  and  N2_10 
REMARK       I    between atoms: N2_10  and  C8_11 
REMARK    8  A    between atoms: C8_11  and  C9_13 
REMARK    9  A    between atoms: C9_13  and  S1_14 
REMARK   10  A    between atoms: S1_14  and  C10_15 
REMARK   11  A    between atoms: C10_15  and  C11_16 
REMARK   12  A    between atoms: C11_16  and  N3_17 
REMARK       I    between atoms: N3_17  and  C12_18 
REMARK   13  A    between atoms: C12_18  and  C13_20 
REMARK   14  A    between atoms: C13_20  and  C14_21 
REMARK   15  A    between atoms: C14_21  and  N4_22 
REMARK       I    between atoms: N4_22  and  C15_23 
REMARK   16  A    between atoms: C15_23  and  C16_25 
REMARK   17  A    between atoms: C16_25  and  O5_26 
REMARK   18  A    between atoms: C16_25  and  C17_27 
REMARK   19  A    between atoms: C17_27  and  C20_30 
REMARK   20  A    between atoms: C20_30  and  O6_31 
REMARK   21  A    between atoms: O6_31  and  P1_32 
REMARK   22  A    between atoms: P1_32  and  O8_34 
REMARK   23  A    between atoms: P1_32  and  O9_35 
REMARK   24  A    between atoms: O9_35  and  P2_36 
REMARK   25  A    between atoms: P2_36  and  O11_38 
REMARK   26  A    between atoms: P2_36  and  O12_39 
REMARK   27  A    between atoms: O12_39  and  C21_40 
REMARK   28  A    between atoms: C21_40  and  C22_41 
REMARK   29  A    between atoms: C23_43  and  N5_44 
REMARK   30  A    between atoms: C26_48  and  N7_49 
REMARK   31  A    between atoms: C29_54  and  O14_55 
REMARK   32  A    between atoms: C30_56  and  O15_57 
REMARK   33  A    between atoms: O15_57  and  P3_58 
REMARK   34  A    between atoms: P3_58  and  O17_60 
REMARK   35  A    between atoms: P3_58  and  O18_61 
REMARK       I    between atoms: C31_62  and  N10_63 
ROOT
ATOM      1  C17 UNK     1      -2.146  -5.914 -17.454  1.00  0.00     0.009 C 
ATOM      2  C18 UNK     1      -0.867  -5.433 -18.193  1.00  0.00     0.020 C 
ATOM      3  C19 UNK     1      -2.426  -7.397 -17.836  1.00  0.00     0.020 C 
ENDROOT
BRANCH   1   4
ATOM      4  C16 UNK     1      -1.950  -5.744 -15.910  1.00  0.00     0.219 C 
BRANCH   4   5
ATOM      5  C15 UNK     1      -1.323  -6.967 -15.211  1.00  0.00     0.247 C 
ATOM      6  N4  UNK     1       0.045  -6.892 -15.011  1.00  0.00    -0.358 N 
ATOM      7  H31 UNK     1       0.537  -6.079 -15.359  1.00  0.00     0.162 HD
ATOM      8  O4  UNK     1      -1.992  -7.886 -14.768  1.00  0.00    -0.271 OA
BRANCH   6   9
ATOM      9  C14 UNK     1       0.773  -7.839 -14.154  1.00  0.00     0.132 C 
BRANCH   9  10
ATOM     10  C13 UNK     1       0.306  -7.776 -12.684  1.00  0.00     0.122 C 
BRANCH  10  11
ATOM     11  C12 UNK     1       1.212  -6.895 -11.815  1.00  0.00     0.219 C 
ATOM     12  N3  UNK     1       2.307  -6.361 -12.471  1.00  0.00    -0.360 N 
ATOM     13  H26 UNK     1       2.432  -6.572 -13.452  1.00  0.00     0.162 HD
ATOM     14  O3  UNK     1       0.998  -6.694 -10.633  1.00  0.00    -0.274 OA
BRANCH  12  15
ATOM     15  C11 UNK     1       3.309  -5.529 -11.792  1.00  0.00     0.132 C 
BRANCH  15  16
ATOM     16  C10 UNK     1       4.738  -5.842 -12.267  1.00  0.00     0.094 C 
BRANCH  16  17
ATOM     17  S1  UNK     1       4.719  -7.244 -13.460  1.00  0.00    -0.158 SA
BRANCH  17  18
ATOM     18  C9  UNK     1       6.441  -7.876 -13.249  1.00  0.00     0.176 C 
BRANCH  18  19
ATOM     19  C8  UNK     1       6.559  -8.807 -12.038  1.00  0.00     0.226 C 
ATOM     20  N2  UNK     1       6.842  -8.165 -10.846  1.00  0.00    -0.360 N 
ATOM     21  H19 UNK     1       6.938  -7.158 -10.851  1.00  0.00     0.162 HD
ATOM     22  O2  UNK     1       6.433 -10.017 -12.114  1.00  0.00    -0.273 OA
BRANCH  20  23
ATOM     23  C7  UNK     1       6.994  -8.879  -9.572  1.00  0.00     0.122 C 
BRANCH  23  24
ATOM     24  C6  UNK     1       6.196  -8.207  -8.438  1.00  0.00     0.020 C 
BRANCH  24  25
ATOM     25  C5  UNK     1       4.757  -8.760  -8.347  1.00  0.00     0.004 C 
BRANCH  25  26
ATOM     26  C4  UNK     1       4.668 -10.234  -8.808  1.00  0.00     0.035 C 
BRANCH  26  27
ATOM     27  C3  UNK     1       5.125 -11.254  -7.733  1.00  0.00     0.176 C 
BRANCH  27  28
ATOM     28  N1  UNK     1       5.666 -12.487  -8.334  1.00  0.00    -0.348 N 
ATOM     29  C2  UNK     1       7.017 -12.739  -8.499  1.00  0.00     0.214 C 
ATOM     30  C1  UNK     1       7.340 -14.104  -9.099  1.00  0.00     0.117 C 
ATOM     31  O1  UNK     1       7.884 -11.947  -8.175  1.00  0.00    -0.274 OA
ATOM     32  H10 UNK     1       5.009 -13.210  -8.599  1.00  0.00     0.163 HD
ENDBRANCH  27  28
BRANCH  27  33
ATOM     33  C31 UNK     1       3.941 -11.618  -6.818  1.00  0.00     0.238 C 
ATOM     34  N10 UNK     1       3.849 -10.886  -5.654  1.00  0.00    -0.368 N 
ATOM     35  H52 UNK     1       4.558 -10.200  -5.429  1.00  0.00     0.159 HD
ATOM     36  H53 UNK     1       3.079 -11.063  -5.021  1.00  0.00     0.159 HD
ATOM     37  O19 UNK     1       3.083 -12.430  -7.116  1.00  0.00    -0.271 OA
ENDBRANCH  27  33
ENDBRANCH  26  27
ENDBRANCH  25  26
ENDBRANCH  24  25
ENDBRANCH  23  24
ENDBRANCH  20  23
ENDBRANCH  18  19
ENDBRANCH  17  18
ENDBRANCH  16  17
ENDBRANCH  15  16
ENDBRANCH  12  15
ENDBRANCH  10  11
ENDBRANCH   9  10
ENDBRANCH   6   9
ENDBRANCH   4   5
BRANCH   4  38
ATOM     38  O5  UNK     1      -3.184  -5.430 -15.254  1.00  0.00    -0.385 OA
ATOM     39  H32 UNK     1      -3.875  -5.421 -15.943  1.00  0.00     0.210 HD
ENDBRANCH   4  38
ENDBRANCH   1   4
BRANCH   1  40
ATOM     40  C20 UNK     1      -3.354  -5.033 -17.889  1.00  0.00     0.192 C 
BRANCH  40  41
ATOM     41  O6  UNK     1      -4.592  -5.726 -17.656  1.00  0.00    -0.296 OA
BRANCH  41  42
ATOM     42  P1  UNK     1      -5.726  -5.764 -18.803  1.00  0.00     0.401 P 
ATOM     43  O7  UNK     1      -5.243  -6.142 -20.156  1.00  0.00    -0.631 OA
BRANCH  42  44
ATOM     44  O8  UNK     1      -6.842  -6.704 -18.125  1.00  0.00    -0.307 OA
ATOM     45  H41 UNK     1      -6.585  -7.631 -18.253  1.00  0.00     0.222 HD
ENDBRANCH  42  44
BRANCH  42  46
ATOM     46  O9  UNK     1      -6.373  -4.301 -18.649  1.00  0.00    -0.195 OA
BRANCH  46  47
ATOM     47  P2  UNK     1      -7.829  -3.859 -19.168  1.00  0.00     0.401 P 
ATOM     48  O10 UNK     1      -8.176  -4.284 -20.548  1.00  0.00    -0.631 OA
BRANCH  47  49
ATOM     49  O11 UNK     1      -8.758  -4.436 -17.989  1.00  0.00    -0.307 OA
ATOM     50  H42 UNK     1      -8.187  -4.785 -17.286  1.00  0.00     0.222 HD
ENDBRANCH  47  49
BRANCH  47  51
ATOM     51  O12 UNK     1      -7.819  -2.269 -18.875  1.00  0.00    -0.294 OA
BRANCH  51  52
ATOM     52  C21 UNK     1      -8.567  -1.665 -17.800  1.00  0.00     0.215 C 
BRANCH  52  53
ATOM     53  C22 UNK     1      -7.659  -0.887 -16.817  1.00  0.00     0.180 C 
ATOM     54  O13 UNK     1      -6.282  -1.246 -17.083  1.00  0.00    -0.353 OA
ATOM     55  C23 UNK     1      -5.449  -0.080 -17.218  1.00  0.00     0.262 C 
ATOM     56  C29 UNK     1      -6.416   0.985 -17.751  1.00  0.00     0.199 C 
ATOM     57  C30 UNK     1      -7.730   0.645 -17.033  1.00  0.00     0.197 C 
BRANCH  55  58
ATOM     58  N5  UNK     1      -4.314  -0.372 -18.100  1.00  0.00    -0.294 N 
ATOM     59  C24 UNK     1      -4.088  -1.470 -18.918  1.00  0.00     0.214 A 
ATOM     60  N6  UNK     1      -2.904  -1.466 -19.631  1.00  0.00    -0.236 NA
ATOM     61  C25 UNK     1      -2.390  -0.284 -19.204  1.00  0.00     0.149 A 
ATOM     62  C26 UNK     1      -1.164   0.296 -19.582  1.00  0.00     0.155 A 
ATOM     63  C28 UNK     1      -3.192   0.397 -18.293  1.00  0.00     0.167 A 
ATOM     64  N8  UNK     1      -0.788   1.486 -19.067  1.00  0.00    -0.222 NA
ATOM     65  C27 UNK     1      -1.637   2.070 -18.190  1.00  0.00     0.237 A 
ATOM     66  N9  UNK     1      -2.831   1.586 -17.773  1.00  0.00    -0.222 NA
BRANCH  62  67
ATOM     67  N7  UNK     1      -0.293  -0.299 -20.481  1.00  0.00    -0.382 N 
ATOM     68  H46 UNK     1       0.703  -0.200 -20.332  1.00  0.00     0.157 HD
ATOM     69  H47 UNK     1      -0.632  -0.534 -21.404  1.00  0.00     0.157 HD
ENDBRANCH  62  67
ENDBRANCH  55  58
BRANCH  56  70
ATOM     70  O14 UNK     1      -5.972   2.326 -17.514  1.00  0.00    -0.388 OA
ATOM     71  H49 UNK     1      -6.726   2.822 -17.146  1.00  0.00     0.210 HD
ENDBRANCH  56  70
BRANCH  57  72
ATOM     72  O15 UNK     1      -7.778   1.301 -15.748  1.00  0.00    -0.286 OA
BRANCH  72  73
ATOM     73  P3  UNK     1      -8.783   2.534 -15.477  1.00  0.00     0.391 P 
ATOM     74  O16 UNK     1     -10.069   2.546 -16.217  1.00  0.00    -0.632 OA
BRANCH  73  75
ATOM     75  O17 UNK     1      -8.915   2.517 -13.878  1.00  0.00    -0.307 OA
ATOM     76  H50 UNK     1      -8.046   2.708 -13.490  1.00  0.00     0.222 HD
ENDBRANCH  73  75
BRANCH  73  77
ATOM     77  O18 UNK     1      -7.814   3.794 -15.703  1.00  0.00    -0.307 OA
ATOM     78  H51 UNK     1      -7.846   4.351 -14.908  1.00  0.00     0.222 HD
ENDBRANCH  73  77
ENDBRANCH  72  73
ENDBRANCH  57  72
ENDBRANCH  52  53
ENDBRANCH  51  52
ENDBRANCH  47  51
ENDBRANCH  46  47
ENDBRANCH  42  46
ENDBRANCH  41  42
ENDBRANCH  40  41
ENDBRANCH   1  40
TORSDOF 35
                                                                                                                                                                                                  
ENDMDL
MODEL 3
REMARK VINA RESULT:    -6.921      7.048     11.702
REMARK INTER + INTRA:         -24.246
REMARK INTER:                 -20.149
REMARK INTRA:                  -4.097
REMARK UNBOUND:                -4.579
REMARK WARNING: 32 MAX_TORS EXCEEDED!!!
REMARK  35 active torsions:
REMARK  status: ('A' for Active; 'I' for Inactive)
REMARK       I    between atoms: C2_2  and  N1_4 
REMARK    1  A    between atoms: N1_4  and  C3_5 
REMARK    2  A    between atoms: C3_5  and  C4_6 
REMARK    3  A    between atoms: C3_5  and  C31_62 
REMARK    4  A    between atoms: C4_6  and  C5_7 
REMARK    5  A    between atoms: C5_7  and  C6_8 
REMARK    6  A    between atoms: C6_8  and  C7_9 
REMARK    7  A    between atoms: C7_9  and  N2_10 
REMARK       I    between atoms: N2_10  and  C8_11 
REMARK    8  A    between atoms: C8_11  and  C9_13 
REMARK    9  A    between atoms: C9_13  and  S1_14 
REMARK   10  A    between atoms: S1_14  and  C10_15 
REMARK   11  A    between atoms: C10_15  and  C11_16 
REMARK   12  A    between atoms: C11_16  and  N3_17 
REMARK       I    between atoms: N3_17  and  C12_18 
REMARK   13  A    between atoms: C12_18  and  C13_20 
REMARK   14  A    between atoms: C13_20  and  C14_21 
REMARK   15  A    between atoms: C14_21  and  N4_22 
REMARK       I    between atoms: N4_22  and  C15_23 
REMARK   16  A    between atoms: C15_23  and  C16_25 
REMARK   17  A    between atoms: C16_25  and  O5_26 
REMARK   18  A    between atoms: C16_25  and  C17_27 
REMARK   19  A    between atoms: C17_27  and  C20_30 
REMARK   20  A    between atoms: C20_30  and  O6_31 
REMARK   21  A    between atoms: O6_31  and  P1_32 
REMARK   22  A    between atoms: P1_32  and  O8_34 
REMARK   23  A    between atoms: P1_32  and  O9_35 
REMARK   24  A    between atoms: O9_35  and  P2_36 
REMARK   25  A    between atoms: P2_36  and  O11_38 
REMARK   26  A    between atoms: P2_36  and  O12_39 
REMARK   27  A    between atoms: O12_39  and  C21_40 
REMARK   28  A    between atoms: C21_40  and  C22_41 
REMARK   29  A    between atoms: C23_43  and  N5_44 
REMARK   30  A    between atoms: C26_48  and  N7_49 
REMARK   31  A    between atoms: C29_54  and  O14_55 
REMARK   32  A    between atoms: C30_56  and  O15_57 
REMARK   33  A    between atoms: O15_57  and  P3_58 
REMARK   34  A    between atoms: P3_58  and  O17_60 
REMARK   35  A    between atoms: P3_58  and  O18_61 
REMARK       I    between atoms: C31_62  and  N10_63 
ROOT
ATOM      1  C17 UNK     1       5.789  -9.317  -8.944  1.00  0.00     0.009 C 
ATOM      2  C18 UNK     1       6.810 -10.402  -8.501  1.00  0.00     0.020 C 
ATOM      3  C19 UNK     1       4.480 -10.015  -9.418  1.00  0.00     0.020 C 
ENDROOT
BRANCH   1   4
ATOM      4  C16 UNK     1       5.520  -8.336  -7.755  1.00  0.00     0.219 C 
BRANCH   4   5
ATOM      5  C15 UNK     1       5.518  -9.008  -6.367  1.00  0.00     0.247 C 
ATOM      6  N4  UNK     1       6.444  -8.503  -5.468  1.00  0.00    -0.358 N 
ATOM      7  H31 UNK     1       7.068  -7.772  -5.783  1.00  0.00     0.162 HD
ATOM      8  O4  UNK     1       4.693  -9.846  -6.043  1.00  0.00    -0.271 OA
BRANCH   6   9
ATOM      9  C14 UNK     1       6.425  -8.843  -4.038  1.00  0.00     0.132 C 
BRANCH   9  10
ATOM     10  C13 UNK     1       6.142  -7.616  -3.147  1.00  0.00     0.122 C 
BRANCH  10  11
ATOM     11  C12 UNK     1       7.286  -7.321  -2.169  1.00  0.00     0.219 C 
ATOM     12  N3  UNK     1       8.235  -6.428  -2.634  1.00  0.00    -0.360 N 
ATOM     13  H26 UNK     1       8.113  -6.032  -3.557  1.00  0.00     0.162 HD
ATOM     14  O3  UNK     1       7.367  -7.846  -1.073  1.00  0.00    -0.274 OA
BRANCH  12  15
ATOM     15  C11 UNK     1       9.423  -6.057  -1.857  1.00  0.00     0.132 C 
BRANCH  15  16
ATOM     16  C10 UNK     1       9.493  -4.543  -1.594  1.00  0.00     0.094 C 
BRANCH  16  17
ATOM     17  S1  UNK     1      11.145  -3.889  -2.075  1.00  0.00    -0.158 SA
BRANCH  17  18
ATOM     18  C9  UNK     1      10.643  -2.334  -2.934  1.00  0.00     0.176 C 
BRANCH  18  19
ATOM     19  C8  UNK     1       9.902  -2.623  -4.243  1.00  0.00     0.226 C 
ATOM     20  N2  UNK     1      10.697  -3.140  -5.251  1.00  0.00    -0.360 N 
ATOM     21  H19 UNK     1      11.678  -3.297  -5.059  1.00  0.00     0.162 HD
ATOM     22  O2  UNK     1       8.714  -2.402  -4.398  1.00  0.00    -0.273 OA
BRANCH  20  23
ATOM     23  C7  UNK     1      10.177  -3.483  -6.580  1.00  0.00     0.122 C 
BRANCH  23  24
ATOM     24  C6  UNK     1      10.933  -2.743  -7.701  1.00  0.00     0.020 C 
BRANCH  24  25
ATOM     25  C5  UNK     1      10.993  -1.222  -7.441  1.00  0.00     0.004 C 
BRANCH  25  26
ATOM     26  C4  UNK     1       9.586  -0.581  -7.398  1.00  0.00     0.035 C 
BRANCH  26  27
ATOM     27  C3  UNK     1       9.522   0.735  -6.579  1.00  0.00     0.176 C 
BRANCH  27  28
ATOM     28  N1  UNK     1      10.444   0.716  -5.429  1.00  0.00    -0.348 N 
ATOM     29  C2  UNK     1      11.397   1.689  -5.185  1.00  0.00     0.214 C 
ATOM     30  C1  UNK     1      12.202   1.483  -3.905  1.00  0.00     0.117 C 
ATOM     31  O1  UNK     1      11.572   2.646  -5.918  1.00  0.00    -0.274 OA
ATOM     32  H10 UNK     1      10.340  -0.031  -4.754  1.00  0.00     0.163 HD
ENDBRANCH  27  28
BRANCH  27  33
ATOM     33  C31 UNK     1       8.087   0.968  -6.072  1.00  0.00     0.238 C 
ATOM     34  N10 UNK     1       7.395  -0.169  -5.715  1.00  0.00    -0.368 N 
ATOM     35  H52 UNK     1       7.819  -1.080  -5.840  1.00  0.00     0.159 HD
ATOM     36  H53 UNK     1       6.455  -0.079  -5.353  1.00  0.00     0.159 HD
ATOM     37  O19 UNK     1       7.602   2.074  -5.906  1.00  0.00    -0.271 OA
ENDBRANCH  27  33
ENDBRANCH  26  27
ENDBRANCH  25  26
ENDBRANCH  24  25
ENDBRANCH  23  24
ENDBRANCH  20  23
ENDBRANCH  18  19
ENDBRANCH  17  18
ENDBRANCH  16  17
ENDBRANCH  15  16
ENDBRANCH  12  15
ENDBRANCH  10  11
ENDBRANCH   9  10
ENDBRANCH   6   9
ENDBRANCH   4   5
BRANCH   4  38
ATOM     38  O5  UNK     1       4.284  -7.632  -7.920  1.00  0.00    -0.385 OA
ATOM     39  H32 UNK     1       3.606  -8.137  -7.432  1.00  0.00     0.210 HD
ENDBRANCH   4  38
ENDBRANCH   1   4
BRANCH   1  40
ATOM     40  C20 UNK     1       6.390  -8.496 -10.123  1.00  0.00     0.192 C 
BRANCH  40  41
ATOM     41  O6  UNK     1       5.720  -8.819 -11.355  1.00  0.00    -0.296 OA
BRANCH  41  42
ATOM     42  P1  UNK     1       6.523  -8.754 -12.752  1.00  0.00     0.401 P 
ATOM     43  O7  UNK     1       7.826  -8.045 -12.701  1.00  0.00    -0.631 OA
BRANCH  42  44
ATOM     44  O8  UNK     1       6.538 -10.303 -13.189  1.00  0.00    -0.307 OA
ATOM     45  H41 UNK     1       7.039 -10.806 -12.527  1.00  0.00     0.222 HD
ENDBRANCH  42  44
BRANCH  42  46
ATOM     46  O9  UNK     1       5.401  -8.137 -13.726  1.00  0.00    -0.195 OA
BRANCH  46  47
ATOM     47  P2  UNK     1       5.549  -7.926 -15.313  1.00  0.00     0.401 P 
ATOM     48  O10 UNK     1       6.542  -6.907 -15.736  1.00  0.00    -0.631 OA
BRANCH  47  49
ATOM     49  O11 UNK     1       5.827  -9.436 -15.792  1.00  0.00    -0.307 OA
ATOM     50  H42 UNK     1       6.259  -9.412 -16.661  1.00  0.00     0.222 HD
ENDBRANCH  47  49
BRANCH  47  51
ATOM     51  O12 UNK     1       4.015  -7.682 -15.760  1.00  0.00    -0.294 OA
BRANCH  51  52
ATOM     52  C21 UNK     1       2.889  -8.143 -14.985  1.00  0.00     0.215 C 
BRANCH  52  53
ATOM     53  C22 UNK     1       2.055  -6.973 -14.408  1.00  0.00     0.180 C 
ATOM     54  O13 UNK     1       1.044  -6.609 -15.378  1.00  0.00    -0.353 OA
ATOM     55  C23 UNK     1      -0.261  -6.528 -14.776  1.00  0.00     0.262 C 
ATOM     56  C29 UNK     1      -0.179  -7.531 -13.618  1.00  0.00     0.199 C 
ATOM     57  C30 UNK     1       1.271  -7.379 -13.135  1.00  0.00     0.197 C 
BRANCH  55  58
ATOM     58  N5  UNK     1      -1.295  -6.828 -15.772  1.00  0.00    -0.294 N 
ATOM     59  C24 UNK     1      -1.634  -8.039 -16.358  1.00  0.00     0.214 A 
ATOM     60  N6  UNK     1      -2.659  -8.003 -17.285  1.00  0.00    -0.236 NA
ATOM     61  C25 UNK     1      -2.945  -6.676 -17.250  1.00  0.00     0.149 A 
ATOM     62  C26 UNK     1      -3.928  -5.998 -17.996  1.00  0.00     0.155 A 
ATOM     63  C28 UNK     1      -2.158  -5.941 -16.368  1.00  0.00     0.167 A 
ATOM     64  N8  UNK     1      -4.094  -4.667 -17.849  1.00  0.00    -0.222 NA
ATOM     65  C27 UNK     1      -3.281  -4.041 -16.966  1.00  0.00     0.237 A 
ATOM     66  N9  UNK     1      -2.315  -4.612 -16.209  1.00  0.00    -0.222 NA
BRANCH  62  67
ATOM     67  N7  UNK     1      -4.762  -6.636 -18.900  1.00  0.00    -0.382 N 
ATOM     68  H46 UNK     1      -4.659  -6.431 -19.885  1.00  0.00     0.157 HD
ATOM     69  H47 UNK     1      -5.633  -7.027 -18.566  1.00  0.00     0.157 HD
ENDBRANCH  62  67
ENDBRANCH  55  58
BRANCH  56  70
ATOM     70  O14 UNK     1      -1.146  -7.293 -12.589  1.00  0.00    -0.388 OA
ATOM     71  H49 UNK     1      -1.490  -6.389 -12.716  1.00  0.00     0.210 HD
ENDBRANCH  56  70
BRANCH  57  72
ATOM     72  O15 UNK     1       1.361  -6.312 -12.166  1.00  0.00    -0.286 OA
BRANCH  72  73
ATOM     73  P3  UNK     1       2.517  -6.304 -11.040  1.00  0.00     0.391 P 
ATOM     74  O16 UNK     1       2.432  -7.320  -9.961  1.00  0.00    -0.632 OA
BRANCH  73  75
ATOM     75  O17 UNK     1       3.854  -6.362 -11.927  1.00  0.00    -0.307 OA
ATOM     76  H50 UNK     1       4.385  -5.570 -11.745  1.00  0.00     0.222 HD
ENDBRANCH  73  75
BRANCH  73  77
ATOM     77  O18 UNK     1       2.506  -4.766 -10.580  1.00  0.00    -0.307 OA
ATOM     78  H51 UNK     1       2.125  -4.716  -9.687  1.00  0.00     0.222 HD
ENDBRANCH  73  77
ENDBRANCH  72  73
ENDBRANCH  57  72
ENDBRANCH  52  53
ENDBRANCH  51  52
ENDBRANCH  47  51
ENDBRANCH  46  47
ENDBRANCH  42  46
ENDBRANCH  41  42
ENDBRANCH  40  41
ENDBRANCH   1  40
TORSDOF 35
                                                                                                                                                                                                  
ENDMDL
MODEL 4
REMARK VINA RESULT:    -6.831      1.900      3.085
REMARK INTER + INTRA:         -23.991
REMARK INTER:                 -18.963
REMARK INTRA:                  -5.028
REMARK UNBOUND:                -4.579
REMARK WARNING: 32 MAX_TORS EXCEEDED!!!
REMARK  35 active torsions:
REMARK  status: ('A' for Active; 'I' for Inactive)
REMARK       I    between atoms: C2_2  and  N1_4 
REMARK    1  A    between atoms: N1_4  and  C3_5 
REMARK    2  A    between atoms: C3_5  and  C4_6 
REMARK    3  A    between atoms: C3_5  and  C31_62 
REMARK    4  A    between atoms: C4_6  and  C5_7 
REMARK    5  A    between atoms: C5_7  and  C6_8 
REMARK    6  A    between atoms: C6_8  and  C7_9 
REMARK    7  A    between atoms: C7_9  and  N2_10 
REMARK       I    between atoms: N2_10  and  C8_11 
REMARK    8  A    between atoms: C8_11  and  C9_13 
REMARK    9  A    between atoms: C9_13  and  S1_14 
REMARK   10  A    between atoms: S1_14  and  C10_15 
REMARK   11  A    between atoms: C10_15  and  C11_16 
REMARK   12  A    between atoms: C11_16  and  N3_17 
REMARK       I    between atoms: N3_17  and  C12_18 
REMARK   13  A    between atoms: C12_18  and  C13_20 
REMARK   14  A    between atoms: C13_20  and  C14_21 
REMARK   15  A    between atoms: C14_21  and  N4_22 
REMARK       I    between atoms: N4_22  and  C15_23 
REMARK   16  A    between atoms: C15_23  and  C16_25 
REMARK   17  A    between atoms: C16_25  and  O5_26 
REMARK   18  A    between atoms: C16_25  and  C17_27 
REMARK   19  A    between atoms: C17_27  and  C20_30 
REMARK   20  A    between atoms: C20_30  and  O6_31 
REMARK   21  A    between atoms: O6_31  and  P1_32 
REMARK   22  A    between atoms: P1_32  and  O8_34 
REMARK   23  A    between atoms: P1_32  and  O9_35 
REMARK   24  A    between atoms: O9_35  and  P2_36 
REMARK   25  A    between atoms: P2_36  and  O11_38 
REMARK   26  A    between atoms: P2_36  and  O12_39 
REMARK   27  A    between atoms: O12_39  and  C21_40 
REMARK   28  A    between atoms: C21_40  and  C22_41 
REMARK   29  A    between atoms: C23_43  and  N5_44 
REMARK   30  A    between atoms: C26_48  and  N7_49 
REMARK   31  A    between atoms: C29_54  and  O14_55 
REMARK   32  A    between atoms: C30_56  and  O15_57 
REMARK   33  A    between atoms: O15_57  and  P3_58 
REMARK   34  A    between atoms: P3_58  and  O17_60 
REMARK   35  A    between atoms: P3_58  and  O18_61 
REMARK       I    between atoms: C31_62  and  N10_63 
ROOT
ATOM      1  C17 UNK     1      -2.470  -4.775 -20.818  1.00  0.00     0.009 C 
ATOM      2  C18 UNK     1      -2.082  -3.982 -22.098  1.00  0.00     0.020 C 
ATOM      3  C19 UNK     1      -2.483  -6.296 -21.148  1.00  0.00     0.020 C 
ENDROOT
BRANCH   1   4
ATOM      4  C16 UNK     1      -1.457  -4.442 -19.672  1.00  0.00     0.219 C 
BRANCH   4   5
ATOM      5  C15 UNK     1      -2.037  -4.589 -18.251  1.00  0.00     0.247 C 
ATOM      6  N4  UNK     1      -2.145  -5.891 -17.791  1.00  0.00    -0.358 N 
ATOM      7  H31 UNK     1      -1.878  -6.643 -18.414  1.00  0.00     0.162 HD
ATOM      8  O4  UNK     1      -2.282  -3.629 -17.539  1.00  0.00    -0.271 OA
BRANCH   6   9
ATOM      9  C14 UNK     1      -2.440  -6.212 -16.388  1.00  0.00     0.132 C 
BRANCH   9  10
ATOM     10  C13 UNK     1      -1.652  -7.441 -15.889  1.00  0.00     0.122 C 
BRANCH  10  11
ATOM     11  C12 UNK     1      -1.270  -7.335 -14.408  1.00  0.00     0.219 C 
ATOM     12  N3  UNK     1       0.028  -7.712 -14.113  1.00  0.00    -0.360 N 
ATOM     13  H26 UNK     1       0.626  -8.015 -14.870  1.00  0.00     0.162 HD
ATOM     14  O3  UNK     1      -2.053  -6.967 -13.550  1.00  0.00    -0.274 OA
BRANCH  12  15
ATOM     15  C11 UNK     1       0.560  -7.719 -12.745  1.00  0.00     0.132 C 
BRANCH  15  16
ATOM     16  C10 UNK     1       1.785  -6.800 -12.596  1.00  0.00     0.094 C 
BRANCH  16  17
ATOM     17  S1  UNK     1       1.822  -6.056 -10.913  1.00  0.00    -0.158 SA
BRANCH  17  18
ATOM     18  C9  UNK     1       3.629  -5.723 -10.742  1.00  0.00     0.176 C 
BRANCH  18  19
ATOM     19  C8  UNK     1       4.368  -6.909 -10.114  1.00  0.00     0.226 C 
ATOM     20  N2  UNK     1       5.439  -7.376 -10.854  1.00  0.00    -0.360 N 
ATOM     21  H19 UNK     1       5.662  -6.912 -11.726  1.00  0.00     0.162 HD
ATOM     22  O2  UNK     1       4.034  -7.416  -9.057  1.00  0.00    -0.273 OA
BRANCH  20  23
ATOM     23  C7  UNK     1       6.274  -8.504 -10.425  1.00  0.00     0.122 C 
BRANCH  23  24
ATOM     24  C6  UNK     1       5.863  -9.818 -11.118  1.00  0.00     0.020 C 
BRANCH  24  25
ATOM     25  C5  UNK     1       6.844 -10.199 -12.248  1.00  0.00     0.004 C 
BRANCH  25  26
ATOM     26  C4  UNK     1       7.742  -9.011 -12.666  1.00  0.00     0.035 C 
BRANCH  26  27
ATOM     27  C3  UNK     1       7.526  -8.548 -14.131  1.00  0.00     0.176 C 
BRANCH  27  28
ATOM     28  N1  UNK     1       8.048  -7.190 -14.366  1.00  0.00    -0.348 N 
ATOM     29  C2  UNK     1       9.248  -6.921 -15.001  1.00  0.00     0.214 C 
ATOM     30  C1  UNK     1       9.556  -5.437 -15.175  1.00  0.00     0.117 C 
ATOM     31  O1  UNK     1       9.993  -7.794 -15.409  1.00  0.00    -0.274 OA
ATOM     32  H10 UNK     1       7.470  -6.408 -14.085  1.00  0.00     0.163 HD
ENDBRANCH  27  28
BRANCH  27  33
ATOM     33  C31 UNK     1       6.025  -8.577 -14.474  1.00  0.00     0.238 C 
ATOM     34  N10 UNK     1       5.650  -9.525 -15.401  1.00  0.00    -0.368 N 
ATOM     35  H52 UNK     1       6.351 -10.111 -15.839  1.00  0.00     0.159 HD
ATOM     36  H53 UNK     1       4.673  -9.609 -15.652  1.00  0.00     0.159 HD
ATOM     37  O19 UNK     1       5.193  -7.882 -13.919  1.00  0.00    -0.271 OA
ENDBRANCH  27  33
ENDBRANCH  26  27
ENDBRANCH  25  26
ENDBRANCH  24  25
ENDBRANCH  23  24
ENDBRANCH  20  23
ENDBRANCH  18  19
ENDBRANCH  17  18
ENDBRANCH  16  17
ENDBRANCH  15  16
ENDBRANCH  12  15
ENDBRANCH  10  11
ENDBRANCH   9  10
ENDBRANCH   6   9
ENDBRANCH   4   5
BRANCH   4  38
ATOM     38  O5  UNK     1      -0.921  -3.122 -19.809  1.00  0.00    -0.385 OA
ATOM     39  H32 UNK     1      -1.330  -2.733 -20.606  1.00  0.00     0.210 HD
ENDBRANCH   4  38
ENDBRANCH   1   4
BRANCH   1  40
ATOM     40  C20 UNK     1      -3.890  -4.336 -20.353  1.00  0.00     0.192 C 
BRANCH  40  41
ATOM     41  O6  UNK     1      -4.626  -5.465 -19.851  1.00  0.00    -0.296 OA
BRANCH  41  42
ATOM     42  P1  UNK     1      -5.916  -5.236 -18.910  1.00  0.00     0.401 P 
ATOM     43  O7  UNK     1      -6.493  -6.469 -18.318  1.00  0.00    -0.631 OA
BRANCH  42  44
ATOM     44  O8  UNK     1      -5.381  -4.107 -17.896  1.00  0.00    -0.307 OA
ATOM     45  H41 UNK     1      -5.926  -4.127 -17.094  1.00  0.00     0.222 HD
ENDBRANCH  42  44
BRANCH  42  46
ATOM     46  O9  UNK     1      -6.870  -4.390 -19.890  1.00  0.00    -0.195 OA
BRANCH  46  47
ATOM     47  P2  UNK     1      -8.225  -3.638 -19.462  1.00  0.00     0.401 P 
ATOM     48  O10 UNK     1      -9.204  -3.407 -20.554  1.00  0.00    -0.631 OA
BRANCH  47  49
ATOM     49  O11 UNK     1      -8.717  -4.571 -18.248  1.00  0.00    -0.307 OA
ATOM     50  H42 UNK     1      -7.961  -5.089 -17.928  1.00  0.00     0.222 HD
ENDBRANCH  47  49
BRANCH  47  51
ATOM     51  O12 UNK     1      -7.653  -2.329 -18.704  1.00  0.00    -0.294 OA
BRANCH  51  52
ATOM     52  C21 UNK     1      -8.442  -1.549 -17.782  1.00  0.00     0.215 C 
BRANCH  52  53
ATOM     53  C22 UNK     1      -7.565  -0.709 -16.824  1.00  0.00     0.180 C 
ATOM     54  O13 UNK     1      -6.174  -1.001 -17.100  1.00  0.00    -0.353 OA
ATOM     55  C23 UNK     1      -5.404   0.203 -17.264  1.00  0.00     0.262 C 
ATOM     56  C29 UNK     1      -6.430   1.208 -17.804  1.00  0.00     0.199 C 
ATOM     57  C30 UNK     1      -7.717   0.813 -17.065  1.00  0.00     0.197 C 
BRANCH  55  58
ATOM     58  N5  UNK     1      -4.265  -0.045 -18.156  1.00  0.00    -0.294 N 
ATOM     59  C24 UNK     1      -4.069  -1.061 -19.080  1.00  0.00     0.214 A 
ATOM     60  N6  UNK     1      -2.873  -1.035 -19.772  1.00  0.00    -0.236 NA
ATOM     61  C25 UNK     1      -2.318   0.073 -19.216  1.00  0.00     0.149 A 
ATOM     62  C26 UNK     1      -1.062   0.634 -19.513  1.00  0.00     0.155 A 
ATOM     63  C28 UNK     1      -3.108   0.689 -18.251  1.00  0.00     0.167 A 
ATOM     64  N8  UNK     1      -0.646   1.746 -18.871  1.00  0.00    -0.222 NA
ATOM     65  C27 UNK     1      -1.487   2.274 -17.951  1.00  0.00     0.237 A 
ATOM     66  N9  UNK     1      -2.707   1.802 -17.604  1.00  0.00    -0.222 NA
BRANCH  62  67
ATOM     67  N7  UNK     1      -0.199   0.098 -20.456  1.00  0.00    -0.382 N 
ATOM     68  H46 UNK     1       0.076  -0.872 -20.367  1.00  0.00     0.157 HD
ATOM     69  H47 UNK     1       0.375   0.725 -21.003  1.00  0.00     0.157 HD
ENDBRANCH  62  67
ENDBRANCH  55  58
BRANCH  56  70
ATOM     70  O14 UNK     1      -6.053   2.574 -17.594  1.00  0.00    -0.388 OA
ATOM     71  H49 UNK     1      -5.490   2.839 -18.345  1.00  0.00     0.210 HD
ENDBRANCH  56  70
BRANCH  57  72
ATOM     72  O15 UNK     1      -7.784   1.488 -15.790  1.00  0.00    -0.286 OA
BRANCH  72  73
ATOM     73  P3  UNK     1      -8.806   2.714 -15.548  1.00  0.00     0.391 P 
ATOM     74  O16 UNK     1     -10.085   2.700 -16.300  1.00  0.00    -0.632 OA
BRANCH  73  75
ATOM     75  O17 UNK     1      -8.953   2.719 -13.949  1.00  0.00    -0.307 OA
ATOM     76  H50 UNK     1      -9.833   2.382 -13.715  1.00  0.00     0.222 HD
ENDBRANCH  73  75
BRANCH  73  77
ATOM     77  O18 UNK     1      -7.848   3.981 -15.783  1.00  0.00    -0.307 OA
ATOM     78  H51 UNK     1      -8.145   4.445 -16.584  1.00  0.00     0.222 HD
ENDBRANCH  73  77
ENDBRANCH  72  73
ENDBRANCH  57  72
ENDBRANCH  52  53
ENDBRANCH  51  52
ENDBRANCH  47  51
ENDBRANCH  46  47
ENDBRANCH  42  46
ENDBRANCH  41  42
ENDBRANCH  40  41
ENDBRANCH   1  40
TORSDOF 35
                                                                                                                                                                                                  
ENDMDL
MODEL 5
REMARK VINA RESULT:    -6.780      2.861      4.960
REMARK INTER + INTRA:         -23.844
REMARK INTER:                 -19.069
REMARK INTRA:                  -4.775
REMARK UNBOUND:                -4.579
REMARK WARNING: 32 MAX_TORS EXCEEDED!!!
REMARK  35 active torsions:
REMARK  status: ('A' for Active; 'I' for Inactive)
REMARK       I    between atoms: C2_2  and  N1_4 
REMARK    1  A    between atoms: N1_4  and  C3_5 
REMARK    2  A    between atoms: C3_5  and  C4_6 
REMARK    3  A    between atoms: C3_5  and  C31_62 
REMARK    4  A    between atoms: C4_6  and  C5_7 
REMARK    5  A    between atoms: C5_7  and  C6_8 
REMARK    6  A    between atoms: C6_8  and  C7_9 
REMARK    7  A    between atoms: C7_9  and  N2_10 
REMARK       I    between atoms: N2_10  and  C8_11 
REMARK    8  A    between atoms: C8_11  and  C9_13 
REMARK    9  A    between atoms: C9_13  and  S1_14 
REMARK   10  A    between atoms: S1_14  and  C10_15 
REMARK   11  A    between atoms: C10_15  and  C11_16 
REMARK   12  A    between atoms: C11_16  and  N3_17 
REMARK       I    between atoms: N3_17  and  C12_18 
REMARK   13  A    between atoms: C12_18  and  C13_20 
REMARK   14  A    between atoms: C13_20  and  C14_21 
REMARK   15  A    between atoms: C14_21  and  N4_22 
REMARK       I    between atoms: N4_22  and  C15_23 
REMARK   16  A    between atoms: C15_23  and  C16_25 
REMARK   17  A    between atoms: C16_25  and  O5_26 
REMARK   18  A    between atoms: C16_25  and  C17_27 
REMARK   19  A    between atoms: C17_27  and  C20_30 
REMARK   20  A    between atoms: C20_30  and  O6_31 
REMARK   21  A    between atoms: O6_31  and  P1_32 
REMARK   22  A    between atoms: P1_32  and  O8_34 
REMARK   23  A    between atoms: P1_32  and  O9_35 
REMARK   24  A    between atoms: O9_35  and  P2_36 
REMARK   25  A    between atoms: P2_36  and  O11_38 
REMARK   26  A    between atoms: P2_36  and  O12_39 
REMARK   27  A    between atoms: O12_39  and  C21_40 
REMARK   28  A    between atoms: C21_40  and  C22_41 
REMARK   29  A    between atoms: C23_43  and  N5_44 
REMARK   30  A    between atoms: C26_48  and  N7_49 
REMARK   31  A    between atoms: C29_54  and  O14_55 
REMARK   32  A    between atoms: C30_56  and  O15_57 
REMARK   33  A    between atoms: O15_57  and  P3_58 
REMARK   34  A    between atoms: P3_58  and  O17_60 
REMARK   35  A    between atoms: P3_58  and  O18_61 
REMARK       I    between atoms: C31_62  and  N10_63 
ROOT
ATOM      1  C17 UNK     1      -2.206  -5.031 -20.751  1.00  0.00     0.009 C 
ATOM      2  C18 UNK     1      -1.823  -4.142 -21.966  1.00  0.00     0.020 C 
ATOM      3  C19 UNK     1      -2.167  -6.526 -21.183  1.00  0.00     0.020 C 
ENDROOT
BRANCH   1   4
ATOM      4  C16 UNK     1      -1.221  -4.748 -19.567  1.00  0.00     0.219 C 
BRANCH   4   5
ATOM      5  C15 UNK     1      -1.839  -4.940 -18.168  1.00  0.00     0.247 C 
ATOM      6  N4  UNK     1      -2.025  -6.258 -17.783  1.00  0.00    -0.358 N 
ATOM      7  H31 UNK     1      -1.784  -6.988 -18.441  1.00  0.00     0.162 HD
ATOM      8  O4  UNK     1      -2.050  -4.009 -17.409  1.00  0.00    -0.271 OA
BRANCH   6   9
ATOM      9  C14 UNK     1      -2.368  -6.638 -16.406  1.00  0.00     0.132 C 
BRANCH   9  10
ATOM     10  C13 UNK     1      -1.351  -7.628 -15.800  1.00  0.00     0.122 C 
BRANCH  10  11
ATOM     11  C12 UNK     1      -1.087  -7.366 -14.313  1.00  0.00     0.219 C 
ATOM     12  N3  UNK     1       0.183  -7.705 -13.878  1.00  0.00    -0.360 N 
ATOM     13  H26 UNK     1       0.836  -8.085 -14.549  1.00  0.00     0.162 HD
ATOM     14  O3  UNK     1      -1.932  -6.911 -13.563  1.00  0.00    -0.274 OA
BRANCH  12  15
ATOM     15  C11 UNK     1       0.605  -7.567 -12.479  1.00  0.00     0.132 C 
BRANCH  15  16
ATOM     16  C10 UNK     1       1.907  -6.757 -12.346  1.00  0.00     0.094 C 
BRANCH  16  17
ATOM     17  S1  UNK     1       2.053  -6.064 -10.647  1.00  0.00    -0.158 SA
BRANCH  17  18
ATOM     18  C9  UNK     1       3.881  -6.160 -10.411  1.00  0.00     0.176 C 
BRANCH  18  19
ATOM     19  C8  UNK     1       4.315  -7.535  -9.892  1.00  0.00     0.226 C 
ATOM     20  N2  UNK     1       5.253  -7.495  -8.876  1.00  0.00    -0.360 N 
ATOM     21  H19 UNK     1       5.572  -6.592  -8.548  1.00  0.00     0.162 HD
ATOM     22  O2  UNK     1       3.886  -8.582 -10.343  1.00  0.00    -0.273 OA
BRANCH  20  23
ATOM     23  C7  UNK     1       5.796  -8.703  -8.244  1.00  0.00     0.122 C 
BRANCH  23  24
ATOM     24  C6  UNK     1       6.075  -8.491  -6.743  1.00  0.00     0.020 C 
BRANCH  24  25
ATOM     25  C5  UNK     1       5.682  -9.728  -5.908  1.00  0.00     0.004 C 
BRANCH  25  26
ATOM     26  C4  UNK     1       4.242 -10.204  -6.211  1.00  0.00     0.035 C 
BRANCH  26  27
ATOM     27  C3  UNK     1       3.989 -11.694  -5.864  1.00  0.00     0.176 C 
BRANCH  27  28
ATOM     28  N1  UNK     1       5.069 -12.261  -5.036  1.00  0.00    -0.348 N 
ATOM     29  C2  UNK     1       4.862 -12.907  -3.830  1.00  0.00     0.214 C 
ATOM     30  C1  UNK     1       6.128 -13.455  -3.177  1.00  0.00     0.117 C 
ATOM     31  O1  UNK     1       3.758 -13.049  -3.334  1.00  0.00    -0.274 OA
ATOM     32  H10 UNK     1       6.014 -12.213  -5.397  1.00  0.00     0.163 HD
ENDBRANCH  27  28
BRANCH  27  33
ATOM     33  C31 UNK     1       3.860 -12.519  -7.158  1.00  0.00     0.238 C 
ATOM     34  N10 UNK     1       3.576 -11.793  -8.294  1.00  0.00    -0.368 N 
ATOM     35  H52 UNK     1       3.422 -10.794  -8.232  1.00  0.00     0.159 HD
ATOM     36  H53 UNK     1       3.501 -12.276  -9.181  1.00  0.00     0.159 HD
ATOM     37  O19 UNK     1       4.073 -13.717  -7.218  1.00  0.00    -0.271 OA
ENDBRANCH  27  33
ENDBRANCH  26  27
ENDBRANCH  25  26
ENDBRANCH  24  25
ENDBRANCH  23  24
ENDBRANCH  20  23
ENDBRANCH  18  19
ENDBRANCH  17  18
ENDBRANCH  16  17
ENDBRANCH  15  16
ENDBRANCH  12  15
ENDBRANCH  10  11
ENDBRANCH   9  10
ENDBRANCH   6   9
ENDBRANCH   4   5
BRANCH   4  38
ATOM     38  O5  UNK     1      -0.672  -3.427 -19.643  1.00  0.00    -0.385 OA
ATOM     39  H32 UNK     1      -1.220  -2.931 -20.281  1.00  0.00     0.210 HD
ENDBRANCH   4  38
ENDBRANCH   1   4
BRANCH   1  40
ATOM     40  C20 UNK     1      -3.646  -4.669 -20.281  1.00  0.00     0.192 C 
BRANCH  40  41
ATOM     41  O6  UNK     1      -4.340  -5.845 -19.832  1.00  0.00    -0.296 OA
BRANCH  41  42
ATOM     42  P1  UNK     1      -5.647  -5.706 -18.897  1.00  0.00     0.401 P 
ATOM     43  O7  UNK     1      -6.244  -6.990 -18.450  1.00  0.00    -0.631 OA
BRANCH  42  44
ATOM     44  O8  UNK     1      -5.126  -4.694 -17.760  1.00  0.00    -0.307 OA
ATOM     45  H41 UNK     1      -4.250  -4.987 -17.462  1.00  0.00     0.222 HD
ENDBRANCH  42  44
BRANCH  42  46
ATOM     46  O9  UNK     1      -6.575  -4.754 -19.802  1.00  0.00    -0.195 OA
BRANCH  46  47
ATOM     47  P2  UNK     1      -7.946  -4.058 -19.331  1.00  0.00     0.401 P 
ATOM     48  O10 UNK     1      -9.013  -3.980 -20.361  1.00  0.00    -0.631 OA
BRANCH  47  49
ATOM     49  O11 UNK     1      -8.285  -4.920 -18.016  1.00  0.00    -0.307 OA
ATOM     50  H42 UNK     1      -8.938  -4.434 -17.486  1.00  0.00     0.222 HD
ENDBRANCH  47  49
BRANCH  47  51
ATOM     51  O12 UNK     1      -7.416  -2.658 -18.720  1.00  0.00    -0.294 OA
BRANCH  51  52
ATOM     52  C21 UNK     1      -8.240  -1.793 -17.912  1.00  0.00     0.215 C 
BRANCH  52  53
ATOM     53  C22 UNK     1      -7.405  -0.938 -16.929  1.00  0.00     0.180 C 
ATOM     54  O13 UNK     1      -6.002  -1.214 -17.158  1.00  0.00    -0.353 OA
ATOM     55  C23 UNK     1      -5.241  -0.002 -17.303  1.00  0.00     0.262 C 
ATOM     56  C29 UNK     1      -6.260   0.988 -17.882  1.00  0.00     0.199 C 
ATOM     57  C30 UNK     1      -7.566   0.582 -17.184  1.00  0.00     0.197 C 
BRANCH  55  58
ATOM     58  N5  UNK     1      -4.070  -0.242 -18.154  1.00  0.00    -0.294 N 
ATOM     59  C24 UNK     1      -3.777  -1.323 -18.972  1.00  0.00     0.214 A 
ATOM     60  N6  UNK     1      -2.575  -1.267 -19.651  1.00  0.00    -0.236 NA
ATOM     61  C25 UNK     1      -2.120  -0.068 -19.201  1.00  0.00     0.149 A 
ATOM     62  C26 UNK     1      -0.909   0.563 -19.541  1.00  0.00     0.155 A 
ATOM     63  C28 UNK     1      -2.975   0.572 -18.310  1.00  0.00     0.167 A 
ATOM     64  N8  UNK     1      -0.595   1.762 -19.007  1.00  0.00    -0.222 NA
ATOM     65  C27 UNK     1      -1.492   2.306 -18.151  1.00  0.00     0.237 A 
ATOM     66  N9  UNK     1      -2.677   1.772 -17.772  1.00  0.00    -0.222 NA
BRANCH  62  67
ATOM     67  N7  UNK     1       0.011   0.010 -20.418  1.00  0.00    -0.382 N 
ATOM     68  H46 UNK     1       0.728  -0.601 -20.049  1.00  0.00     0.157 HD
ATOM     69  H47 UNK     1       0.153   0.452 -21.316  1.00  0.00     0.157 HD
ENDBRANCH  62  67
ENDBRANCH  55  58
BRANCH  56  70
ATOM     70  O14 UNK     1      -5.907   2.359 -17.668  1.00  0.00    -0.388 OA
ATOM     71  H49 UNK     1      -6.484   2.701 -16.961  1.00  0.00     0.210 HD
ENDBRANCH  56  70
BRANCH  57  72
ATOM     72  O15 UNK     1      -7.684   1.263 -15.916  1.00  0.00    -0.286 OA
BRANCH  72  73
ATOM     73  P3  UNK     1      -8.703   2.499 -15.725  1.00  0.00     0.391 P 
ATOM     74  O16 UNK     1      -9.358   2.651 -14.402  1.00  0.00    -0.632 OA
BRANCH  73  75
ATOM     75  O17 UNK     1      -7.810   3.748 -16.192  1.00  0.00    -0.307 OA
ATOM     76  H50 UNK     1      -7.186   3.449 -16.873  1.00  0.00     0.222 HD
ENDBRANCH  73  75
BRANCH  73  77
ATOM     77  O18 UNK     1      -9.675   2.312 -16.989  1.00  0.00    -0.307 OA
ATOM     78  H51 UNK     1     -10.580   2.175 -16.662  1.00  0.00     0.222 HD
ENDBRANCH  73  77
ENDBRANCH  72  73
ENDBRANCH  57  72
ENDBRANCH  52  53
ENDBRANCH  51  52
ENDBRANCH  47  51
ENDBRANCH  46  47
ENDBRANCH  42  46
ENDBRANCH  41  42
ENDBRANCH  40  41
ENDBRANCH   1  40
TORSDOF 35
                                                                                                                                                                                                  
ENDMDL
MODEL 6
REMARK VINA RESULT:    -6.760      4.496     12.909
REMARK INTER + INTRA:         -23.787
REMARK INTER:                 -16.129
REMARK INTRA:                  -7.658
REMARK UNBOUND:                -4.579
REMARK WARNING: 32 MAX_TORS EXCEEDED!!!
REMARK  35 active torsions:
REMARK  status: ('A' for Active; 'I' for Inactive)
REMARK       I    between atoms: C2_2  and  N1_4 
REMARK    1  A    between atoms: N1_4  and  C3_5 
REMARK    2  A    between atoms: C3_5  and  C4_6 
REMARK    3  A    between atoms: C3_5  and  C31_62 
REMARK    4  A    between atoms: C4_6  and  C5_7 
REMARK    5  A    between atoms: C5_7  and  C6_8 
REMARK    6  A    between atoms: C6_8  and  C7_9 
REMARK    7  A    between atoms: C7_9  and  N2_10 
REMARK       I    between atoms: N2_10  and  C8_11 
REMARK    8  A    between atoms: C8_11  and  C9_13 
REMARK    9  A    between atoms: C9_13  and  S1_14 
REMARK   10  A    between atoms: S1_14  and  C10_15 
REMARK   11  A    between atoms: C10_15  and  C11_16 
REMARK   12  A    between atoms: C11_16  and  N3_17 
REMARK       I    between atoms: N3_17  and  C12_18 
REMARK   13  A    between atoms: C12_18  and  C13_20 
REMARK   14  A    between atoms: C13_20  and  C14_21 
REMARK   15  A    between atoms: C14_21  and  N4_22 
REMARK       I    between atoms: N4_22  and  C15_23 
REMARK   16  A    between atoms: C15_23  and  C16_25 
REMARK   17  A    between atoms: C16_25  and  O5_26 
REMARK   18  A    between atoms: C16_25  and  C17_27 
REMARK   19  A    between atoms: C17_27  and  C20_30 
REMARK   20  A    between atoms: C20_30  and  O6_31 
REMARK   21  A    between atoms: O6_31  and  P1_32 
REMARK   22  A    between atoms: P1_32  and  O8_34 
REMARK   23  A    between atoms: P1_32  and  O9_35 
REMARK   24  A    between atoms: O9_35  and  P2_36 
REMARK   25  A    between atoms: P2_36  and  O11_38 
REMARK   26  A    between atoms: P2_36  and  O12_39 
REMARK   27  A    between atoms: O12_39  and  C21_40 
REMARK   28  A    between atoms: C21_40  and  C22_41 
REMARK   29  A    between atoms: C23_43  and  N5_44 
REMARK   30  A    between atoms: C26_48  and  N7_49 
REMARK   31  A    between atoms: C29_54  and  O14_55 
REMARK   32  A    between atoms: C30_56  and  O15_57 
REMARK   33  A    between atoms: O15_57  and  P3_58 
REMARK   34  A    between atoms: P3_58  and  O17_60 
REMARK   35  A    between atoms: P3_58  and  O18_61 
REMARK       I    between atoms: C31_62  and  N10_63 
ROOT
ATOM      1  C17 UNK     1      -3.953  -4.258 -22.588  1.00  0.00     0.009 C 
ATOM      2  C18 UNK     1      -4.403  -4.541 -24.048  1.00  0.00     0.020 C 
ATOM      3  C19 UNK     1      -4.756  -3.044 -22.035  1.00  0.00     0.020 C 
ENDROOT
BRANCH   1   4
ATOM      4  C16 UNK     1      -4.174  -5.540 -21.717  1.00  0.00     0.219 C 
BRANCH   4   5
ATOM      5  C15 UNK     1      -5.345  -5.435 -20.719  1.00  0.00     0.247 C 
ATOM      6  N4  UNK     1      -5.005  -4.968 -19.461  1.00  0.00    -0.358 N 
ATOM      7  H31 UNK     1      -4.032  -4.765 -19.271  1.00  0.00     0.162 HD
ATOM      8  O4  UNK     1      -6.503  -5.644 -21.041  1.00  0.00    -0.271 OA
BRANCH   6   9
ATOM      9  C14 UNK     1      -6.012  -4.573 -18.465  1.00  0.00     0.132 C 
BRANCH   9  10
ATOM     10  C13 UNK     1      -6.241  -3.047 -18.437  1.00  0.00     0.122 C 
BRANCH  10  11
ATOM     11  C12 UNK     1      -7.361  -2.602 -19.384  1.00  0.00     0.219 C 
ATOM     12  N3  UNK     1      -8.328  -3.560 -19.635  1.00  0.00    -0.360 N 
ATOM     13  H26 UNK     1      -8.241  -4.461 -19.185  1.00  0.00     0.162 HD
ATOM     14  O3  UNK     1      -7.392  -1.496 -19.895  1.00  0.00    -0.274 OA
BRANCH  12  15
ATOM     15  C11 UNK     1      -9.453  -3.331 -20.549  1.00  0.00     0.132 C 
BRANCH  15  16
ATOM     16  C10 UNK     1     -10.810  -3.601 -19.876  1.00  0.00     0.094 C 
BRANCH  16  17
ATOM     17  S1  UNK     1     -11.256  -2.206 -18.761  1.00  0.00    -0.158 SA
BRANCH  17  18
ATOM     18  C9  UNK     1     -10.772  -0.773 -19.820  1.00  0.00     0.176 C 
BRANCH  18  19
ATOM     19  C8  UNK     1     -10.298   0.418 -18.981  1.00  0.00     0.226 C 
ATOM     20  N2  UNK     1      -9.312   0.114 -18.060  1.00  0.00    -0.360 N 
ATOM     21  H19 UNK     1      -8.974  -0.838 -18.010  1.00  0.00     0.162 HD
ATOM     22  O2  UNK     1     -10.760   1.539 -19.098  1.00  0.00    -0.273 OA
BRANCH  20  23
ATOM     23  C7  UNK     1      -8.725   1.116 -17.161  1.00  0.00     0.122 C 
BRANCH  23  24
ATOM     24  C6  UNK     1      -7.414   0.617 -16.523  1.00  0.00     0.020 C 
BRANCH  24  25
ATOM     25  C5  UNK     1      -6.226   0.722 -17.504  1.00  0.00     0.004 C 
BRANCH  25  26
ATOM     26  C4  UNK     1      -4.929   0.117 -16.917  1.00  0.00     0.035 C 
BRANCH  26  27
ATOM     27  C3  UNK     1      -3.637   0.591 -17.632  1.00  0.00     0.176 C 
BRANCH  27  28
ATOM     28  N1  UNK     1      -3.552   2.061 -17.705  1.00  0.00    -0.348 N 
ATOM     29  C2  UNK     1      -2.362   2.766 -17.740  1.00  0.00     0.214 C 
ATOM     30  C1  UNK     1      -2.523   4.278 -17.866  1.00  0.00     0.117 C 
ATOM     31  O1  UNK     1      -1.270   2.229 -17.694  1.00  0.00    -0.274 OA
ATOM     32  H10 UNK     1      -4.418   2.580 -17.780  1.00  0.00     0.163 HD
ENDBRANCH  27  28
BRANCH  27  33
ATOM     33  C31 UNK     1      -3.585   0.012 -19.058  1.00  0.00     0.238 C 
ATOM     34  N10 UNK     1      -3.208  -1.311 -19.144  1.00  0.00    -0.368 N 
ATOM     35  H52 UNK     1      -2.946  -1.819 -18.308  1.00  0.00     0.159 HD
ATOM     36  H53 UNK     1      -3.177  -1.756 -20.052  1.00  0.00     0.159 HD
ATOM     37  O19 UNK     1      -3.928   0.629 -20.050  1.00  0.00    -0.271 OA
ENDBRANCH  27  33
ENDBRANCH  26  27
ENDBRANCH  25  26
ENDBRANCH  24  25
ENDBRANCH  23  24
ENDBRANCH  20  23
ENDBRANCH  18  19
ENDBRANCH  17  18
ENDBRANCH  16  17
ENDBRANCH  15  16
ENDBRANCH  12  15
ENDBRANCH  10  11
ENDBRANCH   9  10
ENDBRANCH   6   9
ENDBRANCH   4   5
BRANCH   4  38
ATOM     38  O5  UNK     1      -2.991  -5.895 -20.992  1.00  0.00    -0.385 OA
ATOM     39  H32 UNK     1      -2.544  -6.594 -21.507  1.00  0.00     0.210 HD
ENDBRANCH   4  38
ENDBRANCH   1   4
BRANCH   1  40
ATOM     40  C20 UNK     1      -2.433  -3.918 -22.574  1.00  0.00     0.192 C 
BRANCH  40  41
ATOM     41  O6  UNK     1      -2.131  -3.004 -21.506  1.00  0.00    -0.296 OA
BRANCH  41  42
ATOM     42  P1  UNK     1      -0.621  -2.477 -21.295  1.00  0.00     0.401 P 
ATOM     43  O7  UNK     1       0.382  -3.042 -22.232  1.00  0.00    -0.631 OA
BRANCH  42  44
ATOM     44  O8  UNK     1      -0.830  -0.882 -21.307  1.00  0.00    -0.307 OA
ATOM     45  H41 UNK     1      -1.671  -0.683 -21.748  1.00  0.00     0.222 HD
ENDBRANCH  42  44
BRANCH  42  46
ATOM     46  O9  UNK     1      -0.402  -2.781 -19.732  1.00  0.00    -0.195 OA
BRANCH  46  47
ATOM     47  P2  UNK     1      -0.807  -4.139 -18.974  1.00  0.00     0.401 P 
ATOM     48  O10 UNK     1      -2.217  -4.225 -18.517  1.00  0.00    -0.631 OA
BRANCH  47  49
ATOM     49  O11 UNK     1      -0.337  -5.237 -20.051  1.00  0.00    -0.307 OA
ATOM     50  H42 UNK     1      -0.002  -4.777 -20.838  1.00  0.00     0.222 HD
ENDBRANCH  47  49
BRANCH  47  51
ATOM     51  O12 UNK     1       0.337  -4.238 -17.835  1.00  0.00    -0.294 OA
BRANCH  51  52
ATOM     52  C21 UNK     1       0.053  -4.596 -16.467  1.00  0.00     0.215 C 
BRANCH  52  53
ATOM     53  C22 UNK     1       0.003  -6.129 -16.260  1.00  0.00     0.180 C 
ATOM     54  O13 UNK     1       0.995  -6.492 -15.271  1.00  0.00    -0.353 OA
ATOM     55  C23 UNK     1       0.437  -7.334 -14.246  1.00  0.00     0.262 C 
ATOM     56  C29 UNK     1      -1.036  -6.905 -14.199  1.00  0.00     0.199 C 
ATOM     57  C30 UNK     1      -1.351  -6.602 -15.672  1.00  0.00     0.197 C 
BRANCH  55  58
ATOM     58  N5  UNK     1       1.167  -7.146 -12.987  1.00  0.00    -0.294 N 
ATOM     59  C24 UNK     1       0.682  -6.973 -11.699  1.00  0.00     0.214 A 
ATOM     60  N6  UNK     1       1.629  -6.807 -10.707  1.00  0.00    -0.236 NA
ATOM     61  C25 UNK     1       2.757  -6.883 -11.460  1.00  0.00     0.149 A 
ATOM     62  C26 UNK     1       4.087  -6.782 -11.011  1.00  0.00     0.155 A 
ATOM     63  C28 UNK     1       2.529  -7.080 -12.818  1.00  0.00     0.167 A 
ATOM     64  N8  UNK     1       5.109  -6.878 -11.887  1.00  0.00    -0.222 NA
ATOM     65  C27 UNK     1       4.785  -7.073 -13.187  1.00  0.00     0.237 A 
ATOM     66  N9  UNK     1       3.539  -7.182 -13.704  1.00  0.00    -0.222 NA
BRANCH  62  67
ATOM     67  N7  UNK     1       4.421  -6.585  -9.680  1.00  0.00    -0.382 N 
ATOM     68  H46 UNK     1       5.379  -6.353  -9.448  1.00  0.00     0.157 HD
ATOM     69  H47 UNK     1       3.822  -6.974  -8.965  1.00  0.00     0.157 HD
ENDBRANCH  62  67
ENDBRANCH  55  58
BRANCH  56  70
ATOM     70  O14 UNK     1      -1.899  -7.894 -13.628  1.00  0.00    -0.388 OA
ATOM     71  H49 UNK     1      -2.719  -7.443 -13.356  1.00  0.00     0.210 HD
ENDBRANCH  56  70
BRANCH  57  72
ATOM     72  O15 UNK     1      -1.763  -7.809 -16.349  1.00  0.00    -0.286 OA
BRANCH  72  73
ATOM     73  P3  UNK     1      -2.736  -7.752 -17.635  1.00  0.00     0.391 P 
ATOM     74  O16 UNK     1      -3.479  -8.987 -17.989  1.00  0.00    -0.632 OA
BRANCH  73  75
ATOM     75  O17 UNK     1      -3.652  -6.474 -17.310  1.00  0.00    -0.307 OA
ATOM     76  H50 UNK     1      -3.450  -5.773 -17.950  1.00  0.00     0.222 HD
ENDBRANCH  73  75
BRANCH  73  77
ATOM     77  O18 UNK     1      -1.751  -7.160 -18.756  1.00  0.00    -0.307 OA
ATOM     78  H51 UNK     1      -1.243  -6.430 -18.363  1.00  0.00     0.222 HD
ENDBRANCH  73  77
ENDBRANCH  72  73
ENDBRANCH  57  72
ENDBRANCH  52  53
ENDBRANCH  51  52
ENDBRANCH  47  51
ENDBRANCH  46  47
ENDBRANCH  42  46
ENDBRANCH  41  42
ENDBRANCH  40  41
ENDBRANCH   1  40
TORSDOF 35
                                                                                                                                                                                                  
ENDMDL
MODEL 7
REMARK VINA RESULT:    -6.562      4.049      7.676
REMARK INTER + INTRA:         -23.225
REMARK INTER:                 -18.821
REMARK INTRA:                  -4.404
REMARK UNBOUND:                -4.579
REMARK WARNING: 32 MAX_TORS EXCEEDED!!!
REMARK  35 active torsions:
REMARK  status: ('A' for Active; 'I' for Inactive)
REMARK       I    between atoms: C2_2  and  N1_4 
REMARK    1  A    between atoms: N1_4  and  C3_5 
REMARK    2  A    between atoms: C3_5  and  C4_6 
REMARK    3  A    between atoms: C3_5  and  C31_62 
REMARK    4  A    between atoms: C4_6  and  C5_7 
REMARK    5  A    between atoms: C5_7  and  C6_8 
REMARK    6  A    between atoms: C6_8  and  C7_9 
REMARK    7  A    between atoms: C7_9  and  N2_10 
REMARK       I    between atoms: N2_10  and  C8_11 
REMARK    8  A    between atoms: C8_11  and  C9_13 
REMARK    9  A    between atoms: C9_13  and  S1_14 
REMARK   10  A    between atoms: S1_14  and  C10_15 
REMARK   11  A    between atoms: C10_15  and  C11_16 
REMARK   12  A    between atoms: C11_16  and  N3_17 
REMARK       I    between atoms: N3_17  and  C12_18 
REMARK   13  A    between atoms: C12_18  and  C13_20 
REMARK   14  A    between atoms: C13_20  and  C14_21 
REMARK   15  A    between atoms: C14_21  and  N4_22 
REMARK       I    between atoms: N4_22  and  C15_23 
REMARK   16  A    between atoms: C15_23  and  C16_25 
REMARK   17  A    between atoms: C16_25  and  O5_26 
REMARK   18  A    between atoms: C16_25  and  C17_27 
REMARK   19  A    between atoms: C17_27  and  C20_30 
REMARK   20  A    between atoms: C20_30  and  O6_31 
REMARK   21  A    between atoms: O6_31  and  P1_32 
REMARK   22  A    between atoms: P1_32  and  O8_34 
REMARK   23  A    between atoms: P1_32  and  O9_35 
REMARK   24  A    between atoms: O9_35  and  P2_36 
REMARK   25  A    between atoms: P2_36  and  O11_38 
REMARK   26  A    between atoms: P2_36  and  O12_39 
REMARK   27  A    between atoms: O12_39  and  C21_40 
REMARK   28  A    between atoms: C21_40  and  C22_41 
REMARK   29  A    between atoms: C23_43  and  N5_44 
REMARK   30  A    between atoms: C26_48  and  N7_49 
REMARK   31  A    between atoms: C29_54  and  O14_55 
REMARK   32  A    between atoms: C30_56  and  O15_57 
REMARK   33  A    between atoms: O15_57  and  P3_58 
REMARK   34  A    between atoms: P3_58  and  O17_60 
REMARK   35  A    between atoms: P3_58  and  O18_61 
REMARK       I    between atoms: C31_62  and  N10_63 
ROOT
ATOM      1  C17 UNK     1       2.841  -6.524 -11.387  1.00  0.00     0.009 C 
ATOM      2  C18 UNK     1       3.574  -7.113 -10.150  1.00  0.00     0.020 C 
ATOM      3  C19 UNK     1       1.995  -5.296 -10.939  1.00  0.00     0.020 C 
ENDROOT
BRANCH   1   4
ATOM      4  C16 UNK     1       3.892  -6.132 -12.478  1.00  0.00     0.219 C 
BRANCH   4   5
ATOM      5  C15 UNK     1       4.531  -7.332 -13.204  1.00  0.00     0.247 C 
ATOM      6  N4  UNK     1       4.127  -7.509 -14.517  1.00  0.00    -0.358 N 
ATOM      7  H31 UNK     1       3.430  -6.879 -14.893  1.00  0.00     0.162 HD
ATOM      8  O4  UNK     1       5.409  -8.013 -12.700  1.00  0.00    -0.271 OA
BRANCH   6   9
ATOM      9  C14 UNK     1       4.802  -8.438 -15.434  1.00  0.00     0.132 C 
BRANCH   9  10
ATOM     10  C13 UNK     1       6.025  -7.798 -16.122  1.00  0.00     0.122 C 
BRANCH  10  11
ATOM     11  C12 UNK     1       7.305  -8.622 -15.936  1.00  0.00     0.219 C 
ATOM     12  N3  UNK     1       7.505  -9.106 -14.654  1.00  0.00    -0.360 N 
ATOM     13  H26 UNK     1       6.812  -8.899 -13.947  1.00  0.00     0.162 HD
ATOM     14  O3  UNK     1       8.098  -8.821 -16.838  1.00  0.00    -0.274 OA
BRANCH  12  15
ATOM     15  C11 UNK     1       8.694  -9.878 -14.275  1.00  0.00     0.132 C 
BRANCH  15  16
ATOM     16  C10 UNK     1       8.341 -11.317 -13.860  1.00  0.00     0.094 C 
BRANCH  16  17
ATOM     17  S1  UNK     1       7.164 -11.301 -12.445  1.00  0.00    -0.158 SA
BRANCH  17  18
ATOM     18  C9  UNK     1       8.332 -10.971 -11.053  1.00  0.00     0.176 C 
BRANCH  18  19
ATOM     19  C8  UNK     1       7.618 -10.992  -9.698  1.00  0.00     0.226 C 
ATOM     20  N2  UNK     1       6.309 -11.438  -9.745  1.00  0.00    -0.360 N 
ATOM     21  H19 UNK     1       5.927 -11.722 -10.638  1.00  0.00     0.162 HD
ATOM     22  O2  UNK     1       8.147 -10.629  -8.662  1.00  0.00    -0.273 OA
BRANCH  20  23
ATOM     23  C7  UNK     1       5.456 -11.533  -8.555  1.00  0.00     0.122 C 
BRANCH  23  24
ATOM     24  C6  UNK     1       4.470 -10.351  -8.460  1.00  0.00     0.020 C 
BRANCH  24  25
ATOM     25  C5  UNK     1       4.992  -9.246  -7.516  1.00  0.00     0.004 C 
BRANCH  25  26
ATOM     26  C4  UNK     1       5.278  -9.782  -6.093  1.00  0.00     0.035 C 
BRANCH  26  27
ATOM     27  C3  UNK     1       6.422  -9.033  -5.361  1.00  0.00     0.176 C 
BRANCH  27  28
ATOM     28  N1  UNK     1       7.620  -8.885  -6.209  1.00  0.00    -0.348 N 
ATOM     29  C2  UNK     1       8.241  -7.677  -6.468  1.00  0.00     0.214 C 
ATOM     30  C1  UNK     1       9.494  -7.779  -7.332  1.00  0.00     0.117 C 
ATOM     31  O1  UNK     1       7.837  -6.615  -6.028  1.00  0.00    -0.274 OA
ATOM     32  H10 UNK     1       8.036  -9.728  -6.586  1.00  0.00     0.163 HD
ENDBRANCH  27  28
BRANCH  27  33
ATOM     33  C31 UNK     1       6.805  -9.787  -4.075  1.00  0.00     0.238 C 
ATOM     34  N10 UNK     1       5.746 -10.193  -3.291  1.00  0.00    -0.368 N 
ATOM     35  H52 UNK     1       4.799  -9.949  -3.554  1.00  0.00     0.159 HD
ATOM     36  H53 UNK     1       5.933 -10.713  -2.444  1.00  0.00     0.159 HD
ATOM     37  O19 UNK     1       7.949 -10.093  -3.787  1.00  0.00    -0.271 OA
ENDBRANCH  27  33
ENDBRANCH  26  27
ENDBRANCH  25  26
ENDBRANCH  24  25
ENDBRANCH  23  24
ENDBRANCH  20  23
ENDBRANCH  18  19
ENDBRANCH  17  18
ENDBRANCH  16  17
ENDBRANCH  15  16
ENDBRANCH  12  15
ENDBRANCH  10  11
ENDBRANCH   9  10
ENDBRANCH   6   9
ENDBRANCH   4   5
BRANCH   4  38
ATOM     38  O5  UNK     1       4.939  -5.320 -11.934  1.00  0.00    -0.385 OA
ATOM     39  H32 UNK     1       5.636  -5.266 -12.616  1.00  0.00     0.210 HD
ENDBRANCH   4  38
ENDBRANCH   1   4
BRANCH   1  40
ATOM     40  C20 UNK     1       1.897  -7.607 -11.989  1.00  0.00     0.192 C 
BRANCH  40  41
ATOM     41  O6  UNK     1       0.578  -7.071 -12.188  1.00  0.00    -0.296 OA
BRANCH  41  42
ATOM     42  P1  UNK     1      -0.180  -7.289 -13.595  1.00  0.00     0.401 P 
ATOM     43  O7  UNK     1       0.344  -8.399 -14.430  1.00  0.00    -0.631 OA
BRANCH  42  44
ATOM     44  O8  UNK     1      -1.717  -7.376 -13.125  1.00  0.00    -0.307 OA
ATOM     45  H41 UNK     1      -2.277  -7.013 -13.830  1.00  0.00     0.222 HD
ENDBRANCH  42  44
BRANCH  42  46
ATOM     46  O9  UNK     1      -0.099  -5.811 -14.223  1.00  0.00    -0.195 OA
BRANCH  46  47
ATOM     47  P2  UNK     1      -0.506  -5.406 -15.725  1.00  0.00     0.401 P 
ATOM     48  O10 UNK     1      -0.441  -3.956 -16.040  1.00  0.00    -0.631 OA
BRANCH  47  49
ATOM     49  O11 UNK     1       0.470  -6.365 -16.571  1.00  0.00    -0.307 OA
ATOM     50  H42 UNK     1       0.523  -7.225 -16.125  1.00  0.00     0.222 HD
ENDBRANCH  47  49
BRANCH  47  51
ATOM     51  O12 UNK     1      -1.945  -6.124 -15.885  1.00  0.00    -0.294 OA
BRANCH  51  52
ATOM     52  C21 UNK     1      -2.147  -7.310 -16.681  1.00  0.00     0.215 C 
BRANCH  52  53
ATOM     53  C22 UNK     1      -3.144  -7.075 -17.841  1.00  0.00     0.180 C 
ATOM     54  O13 UNK     1      -3.861  -5.843 -17.587  1.00  0.00    -0.353 OA
ATOM     55  C23 UNK     1      -3.854  -4.980 -18.739  1.00  0.00     0.262 C 
ATOM     56  C29 UNK     1      -2.542  -5.346 -19.446  1.00  0.00     0.199 C 
ATOM     57  C30 UNK     1      -2.430  -6.858 -19.199  1.00  0.00     0.197 C 
BRANCH  55  58
ATOM     58  N5  UNK     1      -3.950  -3.578 -18.317  1.00  0.00    -0.294 N 
ATOM     59  C24 UNK     1      -2.942  -2.673 -18.016  1.00  0.00     0.214 A 
ATOM     60  N6  UNK     1      -3.351  -1.410 -17.632  1.00  0.00    -0.236 NA
ATOM     61  C25 UNK     1      -4.696  -1.578 -17.706  1.00  0.00     0.149 A 
ATOM     62  C26 UNK     1      -5.690  -0.621 -17.426  1.00  0.00     0.155 A 
ATOM     63  C28 UNK     1      -5.095  -2.850 -18.106  1.00  0.00     0.167 A 
ATOM     64  N8  UNK     1      -6.995  -0.941 -17.547  1.00  0.00    -0.222 NA
ATOM     65  C27 UNK     1      -7.283  -2.203 -17.945  1.00  0.00     0.237 A 
ATOM     66  N9  UNK     1      -6.395  -3.183 -18.235  1.00  0.00    -0.222 NA
BRANCH  62  67
ATOM     67  N7  UNK     1      -5.398   0.672 -17.021  1.00  0.00    -0.382 N 
ATOM     68  H46 UNK     1      -4.470   0.875 -16.675  1.00  0.00     0.157 HD
ATOM     69  H47 UNK     1      -6.161   1.290 -16.778  1.00  0.00     0.157 HD
ENDBRANCH  62  67
ENDBRANCH  55  58
BRANCH  56  70
ATOM     70  O14 UNK     1      -2.528  -4.997 -20.834  1.00  0.00    -0.388 OA
ATOM     71  H49 UNK     1      -2.950  -4.122 -20.919  1.00  0.00     0.210 HD
ENDBRANCH  56  70
BRANCH  57  72
ATOM     72  O15 UNK     1      -3.141  -7.582 -20.226  1.00  0.00    -0.286 OA
BRANCH  72  73
ATOM     73  P3  UNK     1      -3.707  -9.069 -19.959  1.00  0.00     0.391 P 
ATOM     74  O16 UNK     1      -4.901  -9.203 -19.088  1.00  0.00    -0.632 OA
BRANCH  73  75
ATOM     75  O17 UNK     1      -3.882  -9.637 -21.450  1.00  0.00    -0.307 OA
ATOM     76  H50 UNK     1      -4.829  -9.677 -21.661  1.00  0.00     0.222 HD
ENDBRANCH  73  75
BRANCH  73  77
ATOM     77  O18 UNK     1      -2.380  -9.836 -19.479  1.00  0.00    -0.307 OA
ATOM     78  H51 UNK     1      -1.676  -9.177 -19.351  1.00  0.00     0.222 HD
ENDBRANCH  73  77
ENDBRANCH  72  73
ENDBRANCH  57  72
ENDBRANCH  52  53
ENDBRANCH  51  52
ENDBRANCH  47  51
ENDBRANCH  46  47
ENDBRANCH  42  46
ENDBRANCH  41  42
ENDBRANCH  40  41
ENDBRANCH   1  40
TORSDOF 35
                                                                                                                                                                                                  
ENDMDL
MODEL 8
REMARK VINA RESULT:    -6.561      5.078      9.227
REMARK INTER + INTRA:         -23.222
REMARK INTER:                 -20.221
REMARK INTRA:                  -3.001
REMARK UNBOUND:                -4.579
REMARK WARNING: 32 MAX_TORS EXCEEDED!!!
REMARK  35 active torsions:
REMARK  status: ('A' for Active; 'I' for Inactive)
REMARK       I    between atoms: C2_2  and  N1_4 
REMARK    1  A    between atoms: N1_4  and  C3_5 
REMARK    2  A    between atoms: C3_5  and  C4_6 
REMARK    3  A    between atoms: C3_5  and  C31_62 
REMARK    4  A    between atoms: C4_6  and  C5_7 
REMARK    5  A    between atoms: C5_7  and  C6_8 
REMARK    6  A    between atoms: C6_8  and  C7_9 
REMARK    7  A    between atoms: C7_9  and  N2_10 
REMARK       I    between atoms: N2_10  and  C8_11 
REMARK    8  A    between atoms: C8_11  and  C9_13 
REMARK    9  A    between atoms: C9_13  and  S1_14 
REMARK   10  A    between atoms: S1_14  and  C10_15 
REMARK   11  A    between atoms: C10_15  and  C11_16 
REMARK   12  A    between atoms: C11_16  and  N3_17 
REMARK       I    between atoms: N3_17  and  C12_18 
REMARK   13  A    between atoms: C12_18  and  C13_20 
REMARK   14  A    between atoms: C13_20  and  C14_21 
REMARK   15  A    between atoms: C14_21  and  N4_22 
REMARK       I    between atoms: N4_22  and  C15_23 
REMARK   16  A    between atoms: C15_23  and  C16_25 
REMARK   17  A    between atoms: C16_25  and  O5_26 
REMARK   18  A    between atoms: C16_25  and  C17_27 
REMARK   19  A    between atoms: C17_27  and  C20_30 
REMARK   20  A    between atoms: C20_30  and  O6_31 
REMARK   21  A    between atoms: O6_31  and  P1_32 
REMARK   22  A    between atoms: P1_32  and  O8_34 
REMARK   23  A    between atoms: P1_32  and  O9_35 
REMARK   24  A    between atoms: O9_35  and  P2_36 
REMARK   25  A    between atoms: P2_36  and  O11_38 
REMARK   26  A    between atoms: P2_36  and  O12_39 
REMARK   27  A    between atoms: O12_39  and  C21_40 
REMARK   28  A    between atoms: C21_40  and  C22_41 
REMARK   29  A    between atoms: C23_43  and  N5_44 
REMARK   30  A    between atoms: C26_48  and  N7_49 
REMARK   31  A    between atoms: C29_54  and  O14_55 
REMARK   32  A    between atoms: C30_56  and  O15_57 
REMARK   33  A    between atoms: O15_57  and  P3_58 
REMARK   34  A    between atoms: P3_58  and  O17_60 
REMARK   35  A    between atoms: P3_58  and  O18_61 
REMARK       I    between atoms: C31_62  and  N10_63 
ROOT
ATOM      1  C17 UNK     1       3.483  -6.437 -11.273  1.00  0.00     0.009 C 
ATOM      2  C18 UNK     1       4.389  -7.412 -10.469  1.00  0.00     0.020 C 
ATOM      3  C19 UNK     1       2.924  -5.351 -10.308  1.00  0.00     0.020 C 
ENDROOT
BRANCH   1   4
ATOM      4  C16 UNK     1       4.310  -5.800 -12.440  1.00  0.00     0.219 C 
BRANCH   4   5
ATOM      5  C15 UNK     1       5.397  -6.724 -13.025  1.00  0.00     0.247 C 
ATOM      6  N4  UNK     1       6.700  -6.302 -12.822  1.00  0.00    -0.358 N 
ATOM      7  H31 UNK     1       6.850  -5.420 -12.347  1.00  0.00     0.162 HD
ATOM      8  O4  UNK     1       5.138  -7.802 -13.535  1.00  0.00    -0.271 OA
BRANCH   6   9
ATOM      9  C14 UNK     1       7.861  -7.163 -13.088  1.00  0.00     0.132 C 
BRANCH   9  10
ATOM     10  C13 UNK     1       8.242  -7.187 -14.583  1.00  0.00     0.122 C 
BRANCH  10  11
ATOM     11  C12 UNK     1       8.614  -5.800 -15.120  1.00  0.00     0.219 C 
ATOM     12  N3  UNK     1       9.947  -5.456 -14.971  1.00  0.00    -0.360 N 
ATOM     13  H26 UNK     1      10.571  -6.123 -14.538  1.00  0.00     0.162 HD
ATOM     14  O3  UNK     1       7.799  -5.047 -15.622  1.00  0.00    -0.274 OA
BRANCH  12  15
ATOM     15  C11 UNK     1      10.479  -4.152 -15.384  1.00  0.00     0.132 C 
BRANCH  15  16
ATOM     16  C10 UNK     1      11.486  -4.280 -16.542  1.00  0.00     0.094 C 
BRANCH  16  17
ATOM     17  S1  UNK     1      10.741  -3.652 -18.104  1.00  0.00    -0.158 SA
BRANCH  17  18
ATOM     18  C9  UNK     1       9.538  -2.428 -17.424  1.00  0.00     0.176 C 
BRANCH  18  19
ATOM     19  C8  UNK     1      10.088  -0.999 -17.481  1.00  0.00     0.226 C 
ATOM     20  N2  UNK     1       9.121  -0.017 -17.602  1.00  0.00    -0.360 N 
ATOM     21  H19 UNK     1       8.149  -0.297 -17.632  1.00  0.00     0.162 HD
ATOM     22  O2  UNK     1      11.278  -0.742 -17.443  1.00  0.00    -0.273 OA
BRANCH  20  23
ATOM     23  C7  UNK     1       9.443   1.414 -17.674  1.00  0.00     0.122 C 
BRANCH  23  24
ATOM     24  C6  UNK     1       8.173   2.286 -17.719  1.00  0.00     0.020 C 
BRANCH  24  25
ATOM     25  C5  UNK     1       8.015   3.132 -16.437  1.00  0.00     0.004 C 
BRANCH  25  26
ATOM     26  C4  UNK     1       7.577   2.278 -15.224  1.00  0.00     0.035 C 
BRANCH  26  27
ATOM     27  C3  UNK     1       6.176   2.649 -14.672  1.00  0.00     0.176 C 
BRANCH  27  28
ATOM     28  N1  UNK     1       5.099   2.309 -15.619  1.00  0.00    -0.348 N 
ATOM     29  C2  UNK     1       4.051   1.454 -15.327  1.00  0.00     0.214 C 
ATOM     30  C1  UNK     1       3.029   1.293 -16.448  1.00  0.00     0.117 C 
ATOM     31  O1  UNK     1       3.937   0.887 -14.255  1.00  0.00    -0.274 OA
ATOM     32  H10 UNK     1       5.104   2.766 -16.523  1.00  0.00     0.163 HD
ENDBRANCH  27  28
BRANCH  27  33
ATOM     33  C31 UNK     1       6.116   4.155 -14.360  1.00  0.00     0.238 C 
ATOM     34  N10 UNK     1       7.147   4.638 -13.584  1.00  0.00    -0.368 N 
ATOM     35  H52 UNK     1       7.849   4.004 -13.222  1.00  0.00     0.159 HD
ATOM     36  H53 UNK     1       7.176   5.626 -13.363  1.00  0.00     0.159 HD
ATOM     37  O19 UNK     1       5.278   4.907 -14.824  1.00  0.00    -0.271 OA
ENDBRANCH  27  33
ENDBRANCH  26  27
ENDBRANCH  25  26
ENDBRANCH  24  25
ENDBRANCH  23  24
ENDBRANCH  20  23
ENDBRANCH  18  19
ENDBRANCH  17  18
ENDBRANCH  16  17
ENDBRANCH  15  16
ENDBRANCH  12  15
ENDBRANCH  10  11
ENDBRANCH   9  10
ENDBRANCH   6   9
ENDBRANCH   4   5
BRANCH   4  38
ATOM     38  O5  UNK     1       4.927  -4.572 -12.039  1.00  0.00    -0.385 OA
ATOM     39  H32 UNK     1       4.353  -3.850 -12.360  1.00  0.00     0.210 HD
ENDBRANCH   4  38
ENDBRANCH   1   4
BRANCH   1  40
ATOM     40  C20 UNK     1       2.298  -7.231 -11.896  1.00  0.00     0.192 C 
BRANCH  40  41
ATOM     41  O6  UNK     1       1.684  -6.474 -12.953  1.00  0.00    -0.296 OA
BRANCH  41  42
ATOM     42  P1  UNK     1       1.112  -7.225 -14.261  1.00  0.00     0.401 P 
ATOM     43  O7  UNK     1       2.069  -7.344 -15.390  1.00  0.00    -0.631 OA
BRANCH  42  44
ATOM     44  O8  UNK     1       0.541  -8.589 -13.627  1.00  0.00    -0.307 OA
ATOM     45  H41 UNK     1      -0.176  -8.917 -14.192  1.00  0.00     0.222 HD
ENDBRANCH  42  44
BRANCH  42  46
ATOM     46  O9  UNK     1      -0.232  -6.387 -14.537  1.00  0.00    -0.195 OA
BRANCH  46  47
ATOM     47  P2  UNK     1      -1.718  -6.997 -14.617  1.00  0.00     0.401 P 
ATOM     48  O10 UNK     1      -1.895  -8.137 -15.552  1.00  0.00    -0.631 OA
BRANCH  47  49
ATOM     49  O11 UNK     1      -2.005  -7.296 -13.064  1.00  0.00    -0.307 OA
ATOM     50  H42 UNK     1      -1.677  -6.550 -12.537  1.00  0.00     0.222 HD
ENDBRANCH  47  49
BRANCH  47  51
ATOM     51  O12 UNK     1      -2.604  -5.675 -14.901  1.00  0.00    -0.294 OA
BRANCH  51  52
ATOM     52  C21 UNK     1      -2.272  -4.712 -15.922  1.00  0.00     0.215 C 
BRANCH  52  53
ATOM     53  C22 UNK     1      -3.237  -4.780 -17.130  1.00  0.00     0.180 C 
ATOM     54  O13 UNK     1      -4.245  -3.752 -16.970  1.00  0.00    -0.353 OA
ATOM     55  C23 UNK     1      -4.390  -2.964 -18.166  1.00  0.00     0.262 C 
ATOM     56  C29 UNK     1      -2.995  -3.027 -18.802  1.00  0.00     0.199 C 
ATOM     57  C30 UNK     1      -2.531  -4.453 -18.470  1.00  0.00     0.197 C 
BRANCH  55  58
ATOM     58  N5  UNK     1      -4.845  -1.612 -17.825  1.00  0.00    -0.294 N 
ATOM     59  C24 UNK     1      -4.111  -0.447 -17.656  1.00  0.00     0.214 A 
ATOM     60  N6  UNK     1      -4.830   0.685 -17.321  1.00  0.00    -0.236 NA
ATOM     61  C25 UNK     1      -6.079   0.153 -17.285  1.00  0.00     0.149 A 
ATOM     62  C26 UNK     1      -7.281   0.825 -16.991  1.00  0.00     0.155 A 
ATOM     63  C28 UNK     1      -6.134  -1.207 -17.575  1.00  0.00     0.167 A 
ATOM     64  N8  UNK     1      -8.452   0.155 -16.995  1.00  0.00    -0.222 NA
ATOM     65  C27 UNK     1      -8.402  -1.165 -17.292  1.00  0.00     0.237 A 
ATOM     66  N9  UNK     1      -7.296  -1.888 -17.586  1.00  0.00    -0.222 NA
BRANCH  62  67
ATOM     67  N7  UNK     1      -7.335   2.176 -16.689  1.00  0.00    -0.382 N 
ATOM     68  H46 UNK     1      -6.467   2.679 -16.552  1.00  0.00     0.157 HD
ATOM     69  H47 UNK     1      -8.190   2.555 -16.304  1.00  0.00     0.157 HD
ENDBRANCH  62  67
ENDBRANCH  55  58
BRANCH  56  70
ATOM     70  O14 UNK     1      -2.997  -2.746 -20.206  1.00  0.00    -0.388 OA
ATOM     71  H49 UNK     1      -3.785  -2.203 -20.393  1.00  0.00     0.210 HD
ENDBRANCH  56  70
BRANCH  57  72
ATOM     72  O15 UNK     1      -2.992  -5.374 -19.482  1.00  0.00    -0.286 OA
BRANCH  72  73
ATOM     73  P3  UNK     1      -3.376  -6.897 -19.112  1.00  0.00     0.391 P 
ATOM     74  O16 UNK     1      -4.602  -7.120 -18.306  1.00  0.00    -0.632 OA
BRANCH  73  75
ATOM     75  O17 UNK     1      -3.366  -7.607 -20.552  1.00  0.00    -0.307 OA
ATOM     76  H50 UNK     1      -4.022  -7.170 -21.120  1.00  0.00     0.222 HD
ENDBRANCH  73  75
BRANCH  73  77
ATOM     77  O18 UNK     1      -1.998  -7.431 -18.485  1.00  0.00    -0.307 OA
ATOM     78  H51 UNK     1      -1.339  -7.487 -19.197  1.00  0.00     0.222 HD
ENDBRANCH  73  77
ENDBRANCH  72  73
ENDBRANCH  57  72
ENDBRANCH  52  53
ENDBRANCH  51  52
ENDBRANCH  47  51
ENDBRANCH  46  47
ENDBRANCH  42  46
ENDBRANCH  41  42
ENDBRANCH  40  41
ENDBRANCH   1  40
TORSDOF 35
                                                                                                                                                                                                  
ENDMDL
MODEL 9
REMARK VINA RESULT:    -6.558      2.861      4.331
REMARK INTER + INTRA:         -23.214
REMARK INTER:                 -19.365
REMARK INTRA:                  -3.849
REMARK UNBOUND:                -4.579
REMARK WARNING: 32 MAX_TORS EXCEEDED!!!
REMARK  35 active torsions:
REMARK  status: ('A' for Active; 'I' for Inactive)
REMARK       I    between atoms: C2_2  and  N1_4 
REMARK    1  A    between atoms: N1_4  and  C3_5 
REMARK    2  A    between atoms: C3_5  and  C4_6 
REMARK    3  A    between atoms: C3_5  and  C31_62 
REMARK    4  A    between atoms: C4_6  and  C5_7 
REMARK    5  A    between atoms: C5_7  and  C6_8 
REMARK    6  A    between atoms: C6_8  and  C7_9 
REMARK    7  A    between atoms: C7_9  and  N2_10 
REMARK       I    between atoms: N2_10  and  C8_11 
REMARK    8  A    between atoms: C8_11  and  C9_13 
REMARK    9  A    between atoms: C9_13  and  S1_14 
REMARK   10  A    between atoms: S1_14  and  C10_15 
REMARK   11  A    between atoms: C10_15  and  C11_16 
REMARK   12  A    between atoms: C11_16  and  N3_17 
REMARK       I    between atoms: N3_17  and  C12_18 
REMARK   13  A    between atoms: C12_18  and  C13_20 
REMARK   14  A    between atoms: C13_20  and  C14_21 
REMARK   15  A    between atoms: C14_21  and  N4_22 
REMARK       I    between atoms: N4_22  and  C15_23 
REMARK   16  A    between atoms: C15_23  and  C16_25 
REMARK   17  A    between atoms: C16_25  and  O5_26 
REMARK   18  A    between atoms: C16_25  and  C17_27 
REMARK   19  A    between atoms: C17_27  and  C20_30 
REMARK   20  A    between atoms: C20_30  and  O6_31 
REMARK   21  A    between atoms: O6_31  and  P1_32 
REMARK   22  A    between atoms: P1_32  and  O8_34 
REMARK   23  A    between atoms: P1_32  and  O9_35 
REMARK   24  A    between atoms: O9_35  and  P2_36 
REMARK   25  A    between atoms: P2_36  and  O11_38 
REMARK   26  A    between atoms: P2_36  and  O12_39 
REMARK   27  A    between atoms: O12_39  and  C21_40 
REMARK   28  A    between atoms: C21_40  and  C22_41 
REMARK   29  A    between atoms: C23_43  and  N5_44 
REMARK   30  A    between atoms: C26_48  and  N7_49 
REMARK   31  A    between atoms: C29_54  and  O14_55 
REMARK   32  A    between atoms: C30_56  and  O15_57 
REMARK   33  A    between atoms: O15_57  and  P3_58 
REMARK   34  A    between atoms: P3_58  and  O17_60 
REMARK   35  A    between atoms: P3_58  and  O18_61 
REMARK       I    between atoms: C31_62  and  N10_63 
ROOT
ATOM      1  C17 UNK     1      -1.901  -6.243 -16.939  1.00  0.00     0.009 C 
ATOM      2  C18 UNK     1      -0.574  -5.888 -17.666  1.00  0.00     0.020 C 
ATOM      3  C19 UNK     1      -2.131  -7.781 -17.025  1.00  0.00     0.020 C 
ENDROOT
BRANCH   1   4
ATOM      4  C16 UNK     1      -1.830  -5.754 -15.454  1.00  0.00     0.219 C 
BRANCH   4   5
ATOM      5  C15 UNK     1      -1.387  -6.836 -14.449  1.00  0.00     0.247 C 
ATOM      6  N4  UNK     1      -0.054  -7.204 -14.530  1.00  0.00    -0.358 N 
ATOM      7  H31 UNK     1       0.518  -6.776 -15.246  1.00  0.00     0.162 HD
ATOM      8  O4  UNK     1      -2.124  -7.262 -13.576  1.00  0.00    -0.271 OA
BRANCH   6   9
ATOM      9  C14 UNK     1       0.601  -8.030 -13.506  1.00  0.00     0.132 C 
BRANCH   9  10
ATOM     10  C13 UNK     1       0.766  -7.283 -12.166  1.00  0.00     0.122 C 
BRANCH  10  11
ATOM     11  C12 UNK     1       2.210  -6.831 -11.917  1.00  0.00     0.219 C 
ATOM     12  N3  UNK     1       3.005  -7.757 -11.264  1.00  0.00    -0.360 N 
ATOM     13  H26 UNK     1       2.599  -8.648 -11.010  1.00  0.00     0.162 HD
ATOM     14  O3  UNK     1       2.625  -5.735 -12.248  1.00  0.00    -0.274 OA
BRANCH  12  15
ATOM     15  C11 UNK     1       4.401  -7.487 -10.901  1.00  0.00     0.132 C 
BRANCH  15  16
ATOM     16  C10 UNK     1       4.548  -7.098  -9.419  1.00  0.00     0.094 C 
BRANCH  16  17
ATOM     17  S1  UNK     1       5.077  -8.557  -8.428  1.00  0.00    -0.158 SA
BRANCH  17  18
ATOM     18  C9  UNK     1       6.745  -7.989  -7.876  1.00  0.00     0.176 C 
BRANCH  18  19
ATOM     19  C8  UNK     1       7.868  -8.724  -8.614  1.00  0.00     0.226 C 
ATOM     20  N2  UNK     1       8.397  -8.032  -9.689  1.00  0.00    -0.360 N 
ATOM     21  H19 UNK     1       8.027  -7.114  -9.902  1.00  0.00     0.162 HD
ATOM     22  O2  UNK     1       8.257  -9.834  -8.298  1.00  0.00    -0.273 OA
BRANCH  20  23
ATOM     23  C7  UNK     1       9.480  -8.564 -10.525  1.00  0.00     0.122 C 
BRANCH  23  24
ATOM     24  C6  UNK     1       9.268  -8.235 -12.016  1.00  0.00     0.020 C 
BRANCH  24  25
ATOM     25  C5  UNK     1       7.774  -8.042 -12.353  1.00  0.00     0.004 C 
BRANCH  25  26
ATOM     26  C4  UNK     1       7.327  -8.917 -13.548  1.00  0.00     0.035 C 
BRANCH  26  27
ATOM     27  C3  UNK     1       6.989  -8.105 -14.825  1.00  0.00     0.176 C 
BRANCH  27  28
ATOM     28  N1  UNK     1       7.589  -6.759 -14.801  1.00  0.00    -0.348 N 
ATOM     29  C2  UNK     1       8.223  -6.174 -15.883  1.00  0.00     0.214 C 
ATOM     30  C1  UNK     1       8.722  -4.753 -15.636  1.00  0.00     0.117 C 
ATOM     31  O1  UNK     1       8.358  -6.735 -16.956  1.00  0.00    -0.274 OA
ATOM     32  H10 UNK     1       7.490  -6.214 -13.954  1.00  0.00     0.163 HD
ENDBRANCH  27  28
BRANCH  27  33
ATOM     33  C31 UNK     1       5.462  -7.973 -14.975  1.00  0.00     0.238 C 
ATOM     34  N10 UNK     1       4.862  -8.930 -15.765  1.00  0.00    -0.368 N 
ATOM     35  H52 UNK     1       5.428  -9.625 -16.237  1.00  0.00     0.159 HD
ATOM     36  H53 UNK     1       3.857  -8.910 -15.884  1.00  0.00     0.159 HD
ATOM     37  O19 UNK     1       4.795  -7.145 -14.381  1.00  0.00    -0.271 OA
ENDBRANCH  27  33
ENDBRANCH  26  27
ENDBRANCH  25  26
ENDBRANCH  24  25
ENDBRANCH  23  24
ENDBRANCH  20  23
ENDBRANCH  18  19
ENDBRANCH  17  18
ENDBRANCH  16  17
ENDBRANCH  15  16
ENDBRANCH  12  15
ENDBRANCH  10  11
ENDBRANCH   9  10
ENDBRANCH   6   9
ENDBRANCH   4   5
BRANCH   4  38
ATOM     38  O5  UNK     1      -3.081  -5.213 -15.016  1.00  0.00    -0.385 OA
ATOM     39  H32 UNK     1      -3.201  -5.495 -14.090  1.00  0.00     0.210 HD
ENDBRANCH   4  38
ENDBRANCH   1   4
BRANCH   1  40
ATOM     40  C20 UNK     1      -3.083  -5.506 -17.636  1.00  0.00     0.192 C 
BRANCH  40  41
ATOM     41  O6  UNK     1      -4.268  -6.320 -17.613  1.00  0.00    -0.296 OA
BRANCH  41  42
ATOM     42  P1  UNK     1      -5.261  -6.339 -18.884  1.00  0.00     0.401 P 
ATOM     43  O7  UNK     1      -4.650  -6.797 -20.157  1.00  0.00    -0.631 OA
BRANCH  42  44
ATOM     44  O8  UNK     1      -6.504  -7.184 -18.311  1.00  0.00    -0.307 OA
ATOM     45  H41 UNK     1      -6.629  -6.957 -17.376  1.00  0.00     0.222 HD
ENDBRANCH  42  44
BRANCH  42  46
ATOM     46  O9  UNK     1      -5.830  -4.835 -18.856  1.00  0.00    -0.195 OA
BRANCH  46  47
ATOM     47  P2  UNK     1      -7.309  -4.382 -19.292  1.00  0.00     0.401 P 
ATOM     48  O10 UNK     1      -7.769  -4.877 -20.615  1.00  0.00    -0.631 OA
BRANCH  47  49
ATOM     49  O11 UNK     1      -8.161  -4.863 -18.015  1.00  0.00    -0.307 OA
ATOM     50  H42 UNK     1      -8.263  -4.112 -17.409  1.00  0.00     0.222 HD
ENDBRANCH  47  49
BRANCH  47  51
ATOM     51  O12 UNK     1      -7.238  -2.779 -19.097  1.00  0.00    -0.294 OA
BRANCH  51  52
ATOM     52  C21 UNK     1      -7.112  -1.859 -20.200  1.00  0.00     0.215 C 
BRANCH  52  53
ATOM     53  C22 UNK     1      -6.020  -0.790 -19.952  1.00  0.00     0.180 C 
ATOM     54  O13 UNK     1      -6.642   0.370 -19.352  1.00  0.00    -0.353 OA
ATOM     55  C23 UNK     1      -5.931   0.804 -18.178  1.00  0.00     0.262 C 
ATOM     56  C29 UNK     1      -5.309  -0.493 -17.643  1.00  0.00     0.199 C 
ATOM     57  C30 UNK     1      -4.958  -1.259 -18.927  1.00  0.00     0.197 C 
BRANCH  55  58
ATOM     58  N5  UNK     1      -6.851   1.469 -17.248  1.00  0.00    -0.294 N 
ATOM     59  C24 UNK     1      -7.433   0.989 -16.084  1.00  0.00     0.214 A 
ATOM     60  N6  UNK     1      -8.278   1.858 -15.420  1.00  0.00    -0.236 NA
ATOM     61  C25 UNK     1      -8.195   2.929 -16.252  1.00  0.00     0.149 A 
ATOM     62  C26 UNK     1      -8.850   4.167 -16.113  1.00  0.00     0.155 A 
ATOM     63  C28 UNK     1      -7.362   2.740 -17.351  1.00  0.00     0.167 A 
ATOM     64  N8  UNK     1      -8.665   5.140 -17.029  1.00  0.00    -0.222 NA
ATOM     65  C27 UNK     1      -7.834   4.861 -18.061  1.00  0.00     0.237 A 
ATOM     66  N9  UNK     1      -7.165   3.704 -18.272  1.00  0.00    -0.222 NA
BRANCH  62  67
ATOM     67  N7  UNK     1      -9.700   4.456 -15.057  1.00  0.00    -0.382 N 
ATOM     68  H46 UNK     1      -9.757   3.803 -14.286  1.00  0.00     0.157 HD
ATOM     69  H47 UNK     1     -10.457   5.109 -15.206  1.00  0.00     0.157 HD
ENDBRANCH  62  67
ENDBRANCH  55  58
BRANCH  56  70
ATOM     70  O14 UNK     1      -4.182  -0.273 -16.789  1.00  0.00    -0.388 OA
ATOM     71  H49 UNK     1      -3.553   0.292 -17.276  1.00  0.00     0.210 HD
ENDBRANCH  56  70
BRANCH  57  72
ATOM     72  O15 UNK     1      -3.648  -0.869 -19.394  1.00  0.00    -0.286 OA
BRANCH  72  73
ATOM     73  P3  UNK     1      -2.613  -1.960 -19.980  1.00  0.00     0.391 P 
ATOM     74  O16 UNK     1      -1.745  -1.544 -21.110  1.00  0.00    -0.632 OA
BRANCH  73  75
ATOM     75  O17 UNK     1      -1.834  -2.431 -18.658  1.00  0.00    -0.307 OA
ATOM     76  H50 UNK     1      -2.281  -2.055 -17.882  1.00  0.00     0.222 HD
ENDBRANCH  73  75
BRANCH  73  77
ATOM     77  O18 UNK     1      -3.582  -3.213 -20.243  1.00  0.00    -0.307 OA
ATOM     78  H51 UNK     1      -3.992  -3.465 -19.398  1.00  0.00     0.222 HD
ENDBRANCH  73  77
ENDBRANCH  72  73
ENDBRANCH  57  72
ENDBRANCH  52  53
ENDBRANCH  51  52
ENDBRANCH  47  51
ENDBRANCH  46  47
ENDBRANCH  42  46
ENDBRANCH  41  42
ENDBRANCH  40  41
ENDBRANCH   1  40
TORSDOF 35
                                                                                                                                                                                                  
ENDMDL
MODEL 10
REMARK VINA RESULT:    -6.512      2.958      6.160
REMARK INTER + INTRA:         -23.082
REMARK INTER:                 -17.345
REMARK INTRA:                  -5.737
REMARK UNBOUND:                -4.579
REMARK WARNING: 32 MAX_TORS EXCEEDED!!!
REMARK  35 active torsions:
REMARK  status: ('A' for Active; 'I' for Inactive)
REMARK       I    between atoms: C2_2  and  N1_4 
REMARK    1  A    between atoms: N1_4  and  C3_5 
REMARK    2  A    between atoms: C3_5  and  C4_6 
REMARK    3  A    between atoms: C3_5  and  C31_62 
REMARK    4  A    between atoms: C4_6  and  C5_7 
REMARK    5  A    between atoms: C5_7  and  C6_8 
REMARK    6  A    between atoms: C6_8  and  C7_9 
REMARK    7  A    between atoms: C7_9  and  N2_10 
REMARK       I    between atoms: N2_10  and  C8_11 
REMARK    8  A    between atoms: C8_11  and  C9_13 
REMARK    9  A    between atoms: C9_13  and  S1_14 
REMARK   10  A    between atoms: S1_14  and  C10_15 
REMARK   11  A    between atoms: C10_15  and  C11_16 
REMARK   12  A    between atoms: C11_16  and  N3_17 
REMARK       I    between atoms: N3_17  and  C12_18 
REMARK   13  A    between atoms: C12_18  and  C13_20 
REMARK   14  A    between atoms: C13_20  and  C14_21 
REMARK   15  A    between atoms: C14_21  and  N4_22 
REMARK       I    between atoms: N4_22  and  C15_23 
REMARK   16  A    between atoms: C15_23  and  C16_25 
REMARK   17  A    between atoms: C16_25  and  O5_26 
REMARK   18  A    between atoms: C16_25  and  C17_27 
REMARK   19  A    between atoms: C17_27  and  C20_30 
REMARK   20  A    between atoms: C20_30  and  O6_31 
REMARK   21  A    between atoms: O6_31  and  P1_32 
REMARK   22  A    between atoms: P1_32  and  O8_34 
REMARK   23  A    between atoms: P1_32  and  O9_35 
REMARK   24  A    between atoms: O9_35  and  P2_36 
REMARK   25  A    between atoms: P2_36  and  O11_38 
REMARK   26  A    between atoms: P2_36  and  O12_39 
REMARK   27  A    between atoms: O12_39  and  C21_40 
REMARK   28  A    between atoms: C21_40  and  C22_41 
REMARK   29  A    between atoms: C23_43  and  N5_44 
REMARK   30  A    between atoms: C26_48  and  N7_49 
REMARK   31  A    between atoms: C29_54  and  O14_55 
REMARK   32  A    between atoms: C30_56  and  O15_57 
REMARK   33  A    between atoms: O15_57  and  P3_58 
REMARK   34  A    between atoms: P3_58  and  O17_60 
REMARK   35  A    between atoms: P3_58  and  O18_61 
REMARK       I    between atoms: C31_62  and  N10_63 
ROOT
ATOM      1  C17 UNK     1      -5.611  -3.598 -23.755  1.00  0.00     0.009 C 
ATOM      2  C18 UNK     1      -4.855  -2.695 -24.769  1.00  0.00     0.020 C 
ATOM      3  C19 UNK     1      -5.792  -5.015 -24.374  1.00  0.00     0.020 C 
ENDROOT
BRANCH   1   4
ATOM      4  C16 UNK     1      -4.813  -3.654 -22.410  1.00  0.00     0.219 C 
BRANCH   4   5
ATOM      5  C15 UNK     1      -4.493  -5.081 -21.921  1.00  0.00     0.247 C 
ATOM      6  N4  UNK     1      -5.434  -5.635 -21.069  1.00  0.00    -0.358 N 
ATOM      7  H31 UNK     1      -6.230  -5.070 -20.801  1.00  0.00     0.162 HD
ATOM      8  O4  UNK     1      -3.540  -5.719 -22.335  1.00  0.00    -0.271 OA
BRANCH   6   9
ATOM      9  C14 UNK     1      -5.426  -7.057 -20.699  1.00  0.00     0.132 C 
BRANCH   9  10
ATOM     10  C13 UNK     1      -5.061  -7.276 -19.216  1.00  0.00     0.122 C 
BRANCH  10  11
ATOM     11  C12 UNK     1      -3.983  -6.303 -18.724  1.00  0.00     0.219 C 
ATOM     12  N3  UNK     1      -4.432  -5.330 -17.849  1.00  0.00    -0.360 N 
ATOM     13  H26 UNK     1      -5.410  -5.328 -17.591  1.00  0.00     0.162 HD
ATOM     14  O3  UNK     1      -2.822  -6.366 -19.089  1.00  0.00    -0.274 OA
BRANCH  12  15
ATOM     15  C11 UNK     1      -3.555  -4.286 -17.307  1.00  0.00     0.132 C 
BRANCH  15  16
ATOM     16  C10 UNK     1      -2.906  -4.708 -15.977  1.00  0.00     0.094 C 
BRANCH  16  17
ATOM     17  S1  UNK     1      -1.140  -5.155 -16.245  1.00  0.00    -0.158 SA
BRANCH  17  18
ATOM     18  C9  UNK     1      -1.185  -6.945 -15.796  1.00  0.00     0.176 C 
BRANCH  18  19
ATOM     19  C8  UNK     1      -1.027  -7.156 -14.287  1.00  0.00     0.226 C 
ATOM     20  N2  UNK     1       0.260  -7.462 -13.882  1.00  0.00    -0.360 N 
ATOM     21  H19 UNK     1       0.988  -7.514 -14.583  1.00  0.00     0.162 HD
ATOM     22  O2  UNK     1      -1.957  -7.079 -13.504  1.00  0.00    -0.273 OA
BRANCH  20  23
ATOM     23  C7  UNK     1       0.618  -7.700 -12.478  1.00  0.00     0.122 C 
BRANCH  23  24
ATOM     24  C6  UNK     1       1.578  -6.621 -11.940  1.00  0.00     0.020 C 
BRANCH  24  25
ATOM     25  C5  UNK     1       2.093  -6.968 -10.526  1.00  0.00     0.004 C 
BRANCH  25  26
ATOM     26  C4  UNK     1       3.559  -6.524 -10.314  1.00  0.00     0.035 C 
BRANCH  26  27
ATOM     27  C3  UNK     1       4.604  -7.582 -10.756  1.00  0.00     0.176 C 
BRANCH  27  28
ATOM     28  N1  UNK     1       5.696  -7.726  -9.776  1.00  0.00    -0.348 N 
ATOM     29  C2  UNK     1       6.216  -8.942  -9.369  1.00  0.00     0.214 C 
ATOM     30  C1  UNK     1       7.376  -8.839  -8.384  1.00  0.00     0.117 C 
ATOM     31  O1  UNK     1       5.799 -10.012  -9.777  1.00  0.00    -0.274 OA
ATOM     32  H10 UNK     1       6.119  -6.880  -9.415  1.00  0.00     0.163 HD
ENDBRANCH  27  28
BRANCH  27  33
ATOM     33  C31 UNK     1       5.200  -7.193 -12.121  1.00  0.00     0.238 C 
ATOM     34  N10 UNK     1       5.337  -5.839 -12.340  1.00  0.00    -0.368 N 
ATOM     35  H52 UNK     1       5.011  -5.178 -11.646  1.00  0.00     0.159 HD
ATOM     36  H53 UNK     1       5.744  -5.521 -13.211  1.00  0.00     0.159 HD
ATOM     37  O19 UNK     1       5.609  -8.002 -12.934  1.00  0.00    -0.271 OA
ENDBRANCH  27  33
ENDBRANCH  26  27
ENDBRANCH  25  26
ENDBRANCH  24  25
ENDBRANCH  23  24
ENDBRANCH  20  23
ENDBRANCH  18  19
ENDBRANCH  17  18
ENDBRANCH  16  17
ENDBRANCH  15  16
ENDBRANCH  12  15
ENDBRANCH  10  11
ENDBRANCH   9  10
ENDBRANCH   6   9
ENDBRANCH   4   5
BRANCH   4  38
ATOM     38  O5  UNK     1      -5.497  -2.958 -21.362  1.00  0.00    -0.385 OA
ATOM     39  H32 UNK     1      -5.969  -2.213 -21.780  1.00  0.00     0.210 HD
ENDBRANCH   4  38
ENDBRANCH   1   4
BRANCH   1  40
ATOM     40  C20 UNK     1      -7.012  -2.982 -23.462  1.00  0.00     0.192 C 
BRANCH  40  41
ATOM     41  O6  UNK     1      -7.789  -3.867 -22.639  1.00  0.00    -0.296 OA
BRANCH  41  42
ATOM     42  P1  UNK     1      -9.257  -3.426 -22.138  1.00  0.00     0.401 P 
ATOM     43  O7  UNK     1     -10.023  -2.584 -23.091  1.00  0.00    -0.631 OA
BRANCH  42  44
ATOM     44  O8  UNK     1      -9.897  -4.842 -21.720  1.00  0.00    -0.307 OA
ATOM     45  H41 UNK     1      -9.471  -5.145 -20.903  1.00  0.00     0.222 HD
ENDBRANCH  42  44
BRANCH  42  46
ATOM     46  O9  UNK     1      -8.915  -2.772 -20.709  1.00  0.00    -0.195 OA
BRANCH  46  47
ATOM     47  P2  UNK     1      -8.793  -3.567 -19.318  1.00  0.00     0.401 P 
ATOM     48  O10 UNK     1     -10.060  -4.126 -18.784  1.00  0.00    -0.631 OA
BRANCH  47  49
ATOM     49  O11 UNK     1      -7.639  -4.629 -19.678  1.00  0.00    -0.307 OA
ATOM     50  H42 UNK     1      -7.738  -5.403 -19.101  1.00  0.00     0.222 HD
ENDBRANCH  47  49
BRANCH  47  51
ATOM     51  O12 UNK     1      -8.019  -2.494 -18.388  1.00  0.00    -0.294 OA
BRANCH  51  52
ATOM     52  C21 UNK     1      -8.694  -1.417 -17.706  1.00  0.00     0.215 C 
BRANCH  52  53
ATOM     53  C22 UNK     1      -7.737  -0.603 -16.802  1.00  0.00     0.180 C 
ATOM     54  O13 UNK     1      -6.374  -0.919 -17.176  1.00  0.00    -0.353 OA
ATOM     55  C23 UNK     1      -5.593   0.272 -17.382  1.00  0.00     0.262 C 
ATOM     56  C29 UNK     1      -6.633   1.302 -17.841  1.00  0.00     0.199 C 
ATOM     57  C30 UNK     1      -7.874   0.924 -17.019  1.00  0.00     0.197 C 
BRANCH  55  58
ATOM     58  N5  UNK     1      -4.523   0.010 -18.351  1.00  0.00    -0.294 N 
ATOM     59  C24 UNK     1      -3.185  -0.287 -18.134  1.00  0.00     0.214 A 
ATOM     60  N6  UNK     1      -2.410  -0.472 -19.263  1.00  0.00    -0.236 NA
ATOM     61  C25 UNK     1      -3.353  -0.266 -20.218  1.00  0.00     0.149 A 
ATOM     62  C26 UNK     1      -3.176  -0.317 -21.614  1.00  0.00     0.155 A 
ATOM     63  C28 UNK     1      -4.620   0.026 -19.721  1.00  0.00     0.167 A 
ATOM     64  N8  UNK     1      -4.218  -0.088 -22.440  1.00  0.00    -0.222 NA
ATOM     65  C27 UNK     1      -5.411   0.186 -21.861  1.00  0.00     0.237 A 
ATOM     66  N9  UNK     1      -5.671   0.254 -20.534  1.00  0.00    -0.222 NA
BRANCH  62  67
ATOM     67  N7  UNK     1      -1.956  -0.599 -22.209  1.00  0.00    -0.382 N 
ATOM     68  H46 UNK     1      -1.110  -0.273 -21.761  1.00  0.00     0.157 HD
ATOM     69  H47 UNK     1      -1.937  -0.825 -23.194  1.00  0.00     0.157 HD
ENDBRANCH  62  67
ENDBRANCH  55  58
BRANCH  56  70
ATOM     70  O14 UNK     1      -6.216   2.658 -17.646  1.00  0.00    -0.388 OA
ATOM     71  H49 UNK     1      -6.601   2.962 -16.804  1.00  0.00     0.210 HD
ENDBRANCH  56  70
BRANCH  57  72
ATOM     72  O15 UNK     1      -7.841   1.588 -15.737  1.00  0.00    -0.286 OA
BRANCH  72  73
ATOM     73  P3  UNK     1      -8.846   2.805 -15.401  1.00  0.00     0.391 P 
ATOM     74  O16 UNK     1     -10.171   2.805 -16.068  1.00  0.00    -0.632 OA
BRANCH  73  75
ATOM     75  O17 UNK     1      -8.889   2.773 -13.797  1.00  0.00    -0.307 OA
ATOM     76  H50 UNK     1      -8.208   3.374 -13.454  1.00  0.00     0.222 HD
ENDBRANCH  73  75
BRANCH  73  77
ATOM     77  O18 UNK     1      -7.907   4.079 -15.669  1.00  0.00    -0.307 OA
ATOM     78  H51 UNK     1      -7.726   4.131 -16.623  1.00  0.00     0.222 HD
ENDBRANCH  73  77
ENDBRANCH  72  73
ENDBRANCH  57  72
ENDBRANCH  52  53
ENDBRANCH  51  52
ENDBRANCH  47  51
ENDBRANCH  46  47
ENDBRANCH  42  46
ENDBRANCH  41  42
ENDBRANCH  40  41
ENDBRANCH   1  40
TORSDOF 35
                                                                                                                                                                                                  
ENDMDL
