CHEMBL149701_negative
     RDKit          3D

 60 60  0  0  1  0  0  0  0  0999 V2000
    0.6260    3.3740    1.5490 C   0  0  0  0  0  0  0  0  0  0  0  0
    0.7910    3.1380    0.0260 C   0  0  1  0  0  0  0  0  0  0  0  0
   -0.1140    3.5170   -0.4650 H   0  0  0  0  0  0  0  0  0  0  0  0
    1.9520    3.9730   -0.4750 C   0  0  0  0  0  0  0  0  0  0  0  0
    3.1420    3.4680   -0.8110 C   0  0  0  0  0  0  0  0  0  0  0  0
    3.4790    1.9930   -0.7530 C   0  0  0  0  0  0  0  0  0  0  0  0
    2.4080    1.1370   -0.0170 C   0  0  2  0  0  0  0  0  0  0  0  0
    2.5530    1.2730    1.0610 H   0  0  0  0  0  0  0  0  0  0  0  0
    2.6320   -0.3700   -0.3120 C   0  0  0  0  0  0  0  0  0  0  0  0
    3.9940   -0.7160    0.0050 O   0  0  0  0  0  0  0  0  0  0  0  0
    4.4290   -1.9940   -0.2160 C   0  0  0  0  0  0  0  0  0  0  0  0
    3.7250   -2.8800   -0.6760 O   0  0  0  0  0  0  0  0  0  0  0  0
    5.9120   -2.1750    0.1800 C   0  0  0  0  0  0  0  0  0  0  0  0
    6.3740   -3.6280   -0.1110 C   0  0  0  0  0  0  0  0  0  0  0  0
    6.7940   -1.1970   -0.6400 C   0  0  0  0  0  0  0  0  0  0  0  0
    6.0830   -1.8900    1.6940 C   0  0  0  0  0  0  0  0  0  0  0  0
    0.9670    1.6340   -0.3760 C   0  0  1  0  0  0  0  0  0  0  0  0
    0.8860    1.5910   -1.4710 H   0  0  0  0  0  0  0  0  0  0  0  0
   -0.1620    0.7080    0.1770 C   0  0  0  0  0  0  0  0  0  0  0  0
   -1.5990    1.1620   -0.1910 C   0  0  0  0  0  0  0  0  0  0  0  0
   -2.6800    0.1480    0.2560 C   0  0  1  0  0  0  0  0  0  0  0  0
   -2.6640    0.0370    1.6790 O   0  0  0  0  0  0  0  0  0  0  0  0
   -4.0870    0.5650   -0.2490 C   0  0  0  0  0  0  0  0  0  0  0  0
   -5.1750   -0.5300   -0.0870 C   0  0  1  0  0  0  0  0  0  0  0  0
   -5.5170   -0.7090    1.2880 O   0  0  0  0  0  0  0  0  0  0  0  0
   -6.4520   -0.1790   -0.8880 C   0  0  0  0  0  0  0  0  0  0  0  0
   -7.4860   -1.3080   -0.8680 C   0  0  0  0  0  0  0  0  0  0  0  0
   -7.2400   -2.4650   -1.1570 O   0  0  0  0  0  0  0  0  0  0  0  0
   -8.7520   -0.8930   -0.6580 O   0  0  0  0  0  0  0  0  0  0  0  0
    0.4990    4.4440    1.7570 H   0  0  0  0  0  0  0  0  0  0  0  0
   -0.2560    2.8600    1.9490 H   0  0  0  0  0  0  0  0  0  0  0  0
    1.5050    3.0300    2.1080 H   0  0  0  0  0  0  0  0  0  0  0  0
    1.7700    5.0440   -0.5440 H   0  0  0  0  0  0  0  0  0  0  0  0
    3.9390    4.1210   -1.1610 H   0  0  0  0  0  0  0  0  0  0  0  0
    3.6100    1.6250   -1.7790 H   0  0  0  0  0  0  0  0  0  0  0  0
    4.4510    1.8640   -0.2600 H   0  0  0  0  0  0  0  0  0  0  0  0
    1.9600   -0.9830    0.3010 H   0  0  0  0  0  0  0  0  0  0  0  0
    2.4270   -0.5760   -1.3710 H   0  0  0  0  0  0  0  0  0  0  0  0
    6.2720   -3.8680   -1.1780 H   0  0  0  0  0  0  0  0  0  0  0  0
    7.4270   -3.7710    0.1650 H   0  0  0  0  0  0  0  0  0  0  0  0
    5.7770   -4.3530    0.4570 H   0  0  0  0  0  0  0  0  0  0  0  0
    6.5360   -0.1520   -0.4270 H   0  0  0  0  0  0  0  0  0  0  0  0
    7.8570   -1.3330   -0.4030 H   0  0  0  0  0  0  0  0  0  0  0  0
    6.6630   -1.3630   -1.7170 H   0  0  0  0  0  0  0  0  0  0  0  0
    5.4470   -2.5570    2.2910 H   0  0  0  0  0  0  0  0  0  0  0  0
    7.1230   -2.0430    2.0090 H   0  0  0  0  0  0  0  0  0  0  0  0
    5.8090   -0.8560    1.9390 H   0  0  0  0  0  0  0  0  0  0  0  0
   -0.0350   -0.3010   -0.2320 H   0  0  0  0  0  0  0  0  0  0  0  0
   -0.0640    0.6140    1.2660 H   0  0  0  0  0  0  0  0  0  0  0  0
   -1.8220    2.1370    0.2590 H   0  0  0  0  0  0  0  0  0  0  0  0
   -1.6570    1.2940   -1.2790 H   0  0  0  0  0  0  0  0  0  0  0  0
   -2.4360   -0.8280   -0.1850 H   0  0  0  0  0  0  0  0  0  0  0  0
   -2.9200    0.8990    2.0500 H   0  0  0  0  0  0  0  0  0  0  0  0
   -4.4070    1.4870    0.2540 H   0  0  0  0  0  0  0  0  0  0  0  0
   -4.0070    0.8110   -1.3160 H   0  0  0  0  0  0  0  0  0  0  0  0
   -4.7750   -1.4730   -0.4850 H   0  0  0  0  0  0  0  0  0  0  0  0
   -5.7400    0.1600    1.6640 H   0  0  0  0  0  0  0  0  0  0  0  0
   -6.9020    0.7380   -0.4850 H   0  0  0  0  0  0  0  0  0  0  0  0
   -6.2010    0.0230   -1.9360 H   0  0  0  0  0  0  0  0  0  0  0  0
   -9.2900   -1.7020   -0.7110 H   0  0  0  0  0  0  0  0  0  0  0  0
  1 30  1  0  0  0  0
  1 31  1  0  0  0  0
  1 32  1  0  0  0  0
  2  3  1  6  0  0  0
  2  1  1  0  0  0  0
  4  2  1  0  0  0  0
  5  6  1  0  0  0  0
  5  4  2  0  0  0  0
  6 36  1  0  0  0  0
  6  7  1  0  0  0  0
  7  8  1  1  0  0  0
  9  7  1  0  0  0  0
  9 10  1  0  0  0  0
  9 37  1  0  0  0  0
 11 10  1  0  0  0  0
 11 13  1  0  0  0  0
 12 11  2  0  0  0  0
 13 16  1  0  0  0  0
 14 40  1  0  0  0  0
 14 13  1  0  0  0  0
 14 41  1  0  0  0  0
 15 42  1  0  0  0  0
 15 43  1  0  0  0  0
 15 13  1  0  0  0  0
 16 47  1  0  0  0  0
 16 46  1  0  0  0  0
 16 45  1  0  0  0  0
 17 18  1  6  0  0  0
 17  7  1  0  0  0  0
 17  2  1  0  0  0  0
 17 19  1  0  0  0  0
 19 49  1  0  0  0  0
 20 19  1  0  0  0  0
 20 21  1  0  0  0  0
 20 50  1  0  0  0  0
 21 52  1  6  0  0  0
 21 22  1  0  0  0  0
 22 53  1  0  0  0  0
 23 24  1  0  0  0  0
 23 54  1  0  0  0  0
 23 21  1  0  0  0  0
 24 56  1  6  0  0  0
 24 25  1  0  0  0  0
 25 57  1  0  0  0  0
 26 27  1  0  0  0  0
 26 58  1  0  0  0  0
 26 24  1  0  0  0  0
 27 29  1  0  0  0  0
 28 27  2  0  0  0  0
 33  4  1  0  0  0  0
 34  5  1  0  0  0  0
 35  6  1  0  0  0  0
 38  9  1  0  0  0  0
 39 14  1  0  0  0  0
 44 15  1  0  0  0  0
 48 19  1  0  0  0  0
 51 20  1  0  0  0  0
 55 23  1  0  0  0  0
 59 26  1  0  0  0  0
 60 29  1  0  0  0  0
M  END

$$$$
CHEMBL1794644_positive
     RDKit          3D

102104  0  0  1  0  0  0  0  0999 V2000
   -0.4070   -4.3470   -1.9880 C   0  0  0  0  0  0  0  0  0  0  0  0
    0.3080   -5.6480   -1.5270 C   0  0  0  0  0  0  0  0  0  0  0  0
    1.0880   -6.2290   -2.7410 C   0  0  0  0  0  0  0  0  0  0  0  0
    1.3000   -5.3160   -0.3740 C   0  0  0  0  0  0  0  0  0  0  0  0
    2.2920   -4.3790   -0.8290 O   0  0  0  0  0  0  0  0  0  0  0  0
    3.3270   -3.7250    0.2200 P   0  0  1  0  0  0  0  0  0  0  0  0
    2.7040   -2.9770    1.3410 O   0  0  0  0  0  0  0  0  0  0  0  0
    4.2490   -4.9890    0.5930 O   0  0  0  0  0  0  0  0  0  0  0  0
    4.2840   -2.8830   -0.7610 O   0  0  0  0  0  0  0  0  0  0  0  0
    5.4700   -1.9040   -0.2960 P   0  0  1  0  0  0  0  0  0  0  0  0
    6.4680   -2.4970    0.6290 O   0  0  0  0  0  0  0  0  0  0  0  0
    6.0310   -1.3900   -1.7120 O   0  0  0  0  0  0  0  0  0  0  0  0
    4.6520   -0.6200    0.2510 O   0  0  0  0  0  0  0  0  0  0  0  0
    5.2740    0.4290    1.0210 C   0  0  0  0  0  0  0  0  0  0  0  0
    6.4930    1.0510    0.2900 C   0  0  1  0  0  0  0  0  0  0  0  0
    7.2200    0.2720    0.0370 H   0  0  0  0  0  0  0  0  0  0  0  0
    6.0210    1.7160   -0.9040 O   0  0  0  0  0  0  0  0  0  0  0  0
    5.8760    3.1410   -0.7150 C   0  0  1  0  0  0  0  0  0  0  0  0
    6.5370    3.6630   -1.4190 H   0  0  0  0  0  0  0  0  0  0  0  0
    4.4950    3.5480   -1.0000 N   0  0  0  0  0  0  0  0  0  0  0  0
    3.3750    2.7720   -1.2630 C   0  0  0  0  0  0  0  0  0  0  0  0
    2.2060    3.4620   -1.5230 N   0  0  0  0  0  0  0  0  0  0  0  0
    2.6670    4.7350   -1.4140 C   0  0  0  0  0  0  0  0  0  0  0  0
    1.9310    5.9230   -1.5780 C   0  0  2  0  0  0  0  0  0  0  0  0
    0.5800    5.9400   -1.8860 N   0  0  0  0  0  0  0  0  0  0  0  0
    2.5370    7.1210   -1.4370 N   0  0  0  0  0  0  0  0  0  0  0  0
    3.8560    7.1100   -1.1350 C   0  0  0  0  0  0  0  0  0  0  0  0
    4.6380    6.0200   -0.9590 N   0  0  0  0  0  0  0  0  0  0  0  0
    4.0200    4.8310   -1.1070 C   0  0  0  0  0  0  0  0  0  0  0  0
    6.3190    3.4160    0.7350 C   0  0  2  0  0  0  0  0  0  0  0  0
    5.4270    3.4380    1.3740 H   0  0  0  0  0  0  0  0  0  0  0  0
    7.0380    4.6450    0.8760 O   0  0  0  0  0  0  0  0  0  0  0  0
    7.1510    2.1810    1.1090 C   0  0  2  0  0  0  0  0  0  0  0  0
    7.1010    1.9890    2.1880 H   0  0  0  0  0  0  0  0  0  0  0  0
    8.5200    2.3540    0.6810 O   0  0  0  0  0  0  0  0  0  0  0  0
    9.6880    1.3470    1.1570 P   0  0  0  0  0  0  0  0  0  0  0  0
    9.5070   -0.1030    0.9020 O   0  0  0  0  0  0  0  0  0  0  0  0
   10.9880    1.9990    0.4770 O   0  0  0  0  0  0  0  0  0  0  0  0
    9.8860    1.7880    2.6880 O   0  0  0  0  0  0  0  0  0  0  0  0
   -0.7560   -6.6960   -1.0570 C   0  0  1  0  0  0  0  0  0  0  0  0
   -1.4290   -6.8930   -1.9020 H   0  0  0  0  0  0  0  0  0  0  0  0
   -0.1450   -7.9350   -0.6790 O   0  0  0  0  0  0  0  0  0  0  0  0
   -1.6340   -6.2100    0.1120 C   0  0  0  0  0  0  0  0  0  0  0  0
   -1.2560   -6.2390    1.2720 O   0  0  0  0  0  0  0  0  0  0  0  0
   -2.8790   -5.7200   -0.2460 N   0  0  0  0  0  0  0  0  0  0  0  0
   -3.8120   -5.1340    0.7250 C   0  0  0  0  0  0  0  0  0  0  0  0
   -5.0840   -4.5840    0.0500 C   0  0  0  0  0  0  0  0  0  0  0  0
   -6.0290   -3.9150    1.0530 C   0  0  0  0  0  0  0  0  0  0  0  0
   -6.2040   -4.3480    2.1780 O   0  0  0  0  0  0  0  0  0  0  0  0
   -6.6180   -2.7440    0.6100 N   0  0  0  0  0  0  0  0  0  0  0  0
   -7.4310   -1.8830    1.4760 C   0  0  0  0  0  0  0  0  0  0  0  0
   -7.9540   -0.6490    0.7220 C   0  0  0  0  0  0  0  0  0  0  0  0
   -8.9450    0.4260    1.8440 S   0  0  0  0  0  0  0  0  0  0  0  0
   -9.4190    1.7490    0.7110 C   0  0  0  0  0  0  0  0  0  0  0  0
   -9.0860    1.7640   -0.4620 O   0  0  0  0  0  0  0  0  0  0  0  0
  -10.2680    2.8390    1.3810 C   0  0  0  0  0  0  0  0  0  0  0  0
  -11.2300    3.6190    0.4370 C   0  0  1  0  0  0  0  0  0  0  0  0
  -11.9870    4.6880    1.2660 C   0  0  0  0  0  0  0  0  0  0  0  0
  -10.4600    4.3130   -0.5460 O   0  0  0  0  0  0  0  0  0  0  0  0
  -12.2330    2.6530   -0.2620 C   0  0  0  0  0  0  0  0  0  0  0  0
  -13.2210    3.3540   -1.2000 C   0  0  0  0  0  0  0  0  0  0  0  0
  -13.0030    3.5820   -2.3750 O   0  0  0  0  0  0  0  0  0  0  0  0
  -14.4470    3.5430   -0.6690 O   0  0  0  0  0  0  0  0  0  0  0  0
   -1.1670   -4.5630   -2.7490 H   0  0  0  0  0  0  0  0  0  0  0  0
   -0.9000   -3.8410   -1.1480 H   0  0  0  0  0  0  0  0  0  0  0  0
    0.3050   -3.6350   -2.4250 H   0  0  0  0  0  0  0  0  0  0  0  0
    1.7840   -5.4910   -3.1600 H   0  0  0  0  0  0  0  0  0  0  0  0
    1.6740   -7.1110   -2.4540 H   0  0  0  0  0  0  0  0  0  0  0  0
    0.4000   -6.5280   -3.5420 H   0  0  0  0  0  0  0  0  0  0  0  0
    0.7530   -4.8780    0.4710 H   0  0  0  0  0  0  0  0  0  0  0  0
    1.7910   -6.2330   -0.0220 H   0  0  0  0  0  0  0  0  0  0  0  0
    4.5950   -5.3750   -0.2280 H   0  0  0  0  0  0  0  0  0  0  0  0
    5.3020   -0.9860   -2.2090 H   0  0  0  0  0  0  0  0  0  0  0  0
    4.5300    1.2060    1.2360 H   0  0  0  0  0  0  0  0  0  0  0  0
    5.6100    0.0150    1.9810 H   0  0  0  0  0  0  0  0  0  0  0  0
    3.4260    1.6900   -1.2650 H   0  0  0  0  0  0  0  0  0  0  0  0
    0.1330    5.0740   -2.1560 H   0  0  0  0  0  0  0  0  0  0  0  0
    0.1520    6.8180   -2.1500 H   0  0  0  0  0  0  0  0  0  0  0  0
    4.3380    8.0800   -1.0240 H   0  0  0  0  0  0  0  0  0  0  0  0
    6.4660    5.3590    0.5390 H   0  0  0  0  0  0  0  0  0  0  0  0
   11.7740    1.5110    0.7740 H   0  0  0  0  0  0  0  0  0  0  0  0
   10.0050    2.7520    2.7160 H   0  0  0  0  0  0  0  0  0  0  0  0
    0.0490   -7.8760    0.2760 H   0  0  0  0  0  0  0  0  0  0  0  0
   -3.1340   -5.7260   -1.2250 H   0  0  0  0  0  0  0  0  0  0  0  0
   -4.0880   -5.9020    1.4600 H   0  0  0  0  0  0  0  0  0  0  0  0
   -3.3030   -4.3210    1.2590 H   0  0  0  0  0  0  0  0  0  0  0  0
   -4.7990   -3.8560   -0.7210 H   0  0  0  0  0  0  0  0  0  0  0  0
   -5.6280   -5.3920   -0.4550 H   0  0  0  0  0  0  0  0  0  0  0  0
   -6.4120   -2.4290   -0.3300 H   0  0  0  0  0  0  0  0  0  0  0  0
   -8.2790   -2.4640    1.8620 H   0  0  0  0  0  0  0  0  0  0  0  0
   -6.8210   -1.5600    2.3290 H   0  0  0  0  0  0  0  0  0  0  0  0
   -7.1100   -0.0680    0.3280 H   0  0  0  0  0  0  0  0  0  0  0  0
   -8.5850   -0.9650   -0.1180 H   0  0  0  0  0  0  0  0  0  0  0  0
  -10.8550    2.3710    2.1810 H   0  0  0  0  0  0  0  0  0  0  0  0
   -9.5810    3.5370    1.8750 H   0  0  0  0  0  0  0  0  0  0  0  0
  -11.2840    5.3370    1.8040 H   0  0  0  0  0  0  0  0  0  0  0  0
  -12.6030    5.3310    0.6240 H   0  0  0  0  0  0  0  0  0  0  0  0
  -12.6470    4.2180    2.0060 H   0  0  0  0  0  0  0  0  0  0  0  0
   -9.9360    3.6490   -1.0340 H   0  0  0  0  0  0  0  0  0  0  0  0
  -11.6960    1.9030   -0.8550 H   0  0  0  0  0  0  0  0  0  0  0  0
  -12.7990    2.0970    0.4970 H   0  0  0  0  0  0  0  0  0  0  0  0
  -14.9710    3.9380   -1.3880 H   0  0  0  0  0  0  0  0  0  0  0  0
  1  2  1  0  0  0  0
  1 65  1  0  0  0  0
  2 40  1  0  0  0  0
  2  4  1  0  0  0  0
  3 68  1  0  0  0  0
  3  2  1  0  0  0  0
  4 71  1  0  0  0  0
  4 70  1  0  0  0  0
  5  4  1  0  0  0  0
  5  6  1  0  0  0  0
  6  8  1  0  0  0  0
  6  7  2  1  0  0  0
  9 10  1  0  0  0  0
  9  6  1  0  0  0  0
 10 13  1  0  0  0  0
 10 11  2  1  0  0  0
 12 10  1  0  0  0  0
 13 14  1  0  0  0  0
 14 74  1  0  0  0  0
 14 75  1  0  0  0  0
 15 16  1  6  0  0  0
 15 14  1  0  0  0  0
 15 33  1  0  0  0  0
 17 18  1  0  0  0  0
 17 15  1  0  0  0  0
 18 19  1  6  0  0  0
 18 30  1  0  0  0  0
 20 18  1  0  0  0  0
 21 20  1  0  0  0  0
 22 23  1  0  0  0  0
 22 21  2  0  0  0  0
 23 29  2  0  0  0  0
 24 25  1  6  0  0  0
 24 26  1  0  0  0  0
 24 23  1  0  0  0  0
 26 27  2  0  0  0  0
 27 79  1  0  0  0  0
 27 28  1  0  0  0  0
 29 20  1  0  0  0  0
 29 28  1  0  0  0  0
 30 32  1  0  0  0  0
 30 33  1  0  0  0  0
 30 31  1  1  0  0  0
 33 34  1  1  0  0  0
 35 33  1  0  0  0  0
 35 36  1  0  0  0  0
 36 39  1  0  0  0  0
 37 36  2  0  0  0  0
 38 81  1  0  0  0  0
 38 36  1  0  0  0  0
 39 82  1  0  0  0  0
 40 41  1  6  0  0  0
 40 42  1  0  0  0  0
 40 43  1  0  0  0  0
 42 83  1  0  0  0  0
 43 44  2  0  0  0  0
 45 43  1  0  0  0  0
 45 46  1  0  0  0  0
 46 86  1  0  0  0  0
 46 85  1  0  0  0  0
 47 46  1  0  0  0  0
 47 48  1  0  0  0  0
 48 49  2  0  0  0  0
 50 48  1  0  0  0  0
 50 51  1  0  0  0  0
 51 90  1  0  0  0  0
 51 91  1  0  0  0  0
 52 51  1  0  0  0  0
 52 53  1  0  0  0  0
 54 56  1  0  0  0  0
 54 53  1  0  0  0  0
 55 54  2  0  0  0  0
 56 95  1  0  0  0  0
 56 94  1  0  0  0  0
 57 59  1  6  0  0  0
 57 58  1  0  0  0  0
 57 56  1  0  0  0  0
 58 96  1  0  0  0  0
 58 98  1  0  0  0  0
 60 57  1  0  0  0  0
 60101  1  0  0  0  0
 61 63  1  0  0  0  0
 61 60  1  0  0  0  0
 62 61  2  0  0  0  0
 64  1  1  0  0  0  0
 66  1  1  0  0  0  0
 67  3  1  0  0  0  0
 69  3  1  0  0  0  0
 72  8  1  0  0  0  0
 73 12  1  0  0  0  0
 76 21  1  0  0  0  0
 77 25  1  0  0  0  0
 78 25  1  0  0  0  0
 80 32  1  0  0  0  0
 84 45  1  0  0  0  0
 87 47  1  0  0  0  0
 88 47  1  0  0  0  0
 89 50  1  0  0  0  0
 92 52  1  0  0  0  0
 93 52  1  0  0  0  0
 97 58  1  0  0  0  0
 99 59  1  0  0  0  0
100 60  1  0  0  0  0
102 63  1  0  0  0  0
M  END

$$$$
CHEMBL1949897 PubChem-440615
     RDKit          3D

 59 61  0  0  0  0  0  0  0  0999 V2000
   -6.0009  -11.0962  -13.8244 S   0  0  0  0  0  0  0  0  0  0  0  0
   -4.8713  -10.1539  -12.7514 C   0  0  0  0  0  0  0  0  0  0  0  0
   -3.5318  -10.8645  -12.6436 C   0  0  0  0  0  0  0  0  0  0  0  0
   -1.4679  -10.1008  -13.8720 C   0  0  0  0  0  0  0  0  0  0  0  0
   -0.8030   -9.8163  -15.1768 C   0  0  0  0  0  0  0  0  0  0  0  0
   -0.5124   -8.3297  -15.3553 C   0  0  0  0  0  0  0  0  0  0  0  0
   -2.8479   -7.6347  -16.1018 C   0  0  0  0  0  0  0  0  0  0  0  0
   -4.0605   -6.7803  -15.8711 C   0  0  2  0  0  0  0  0  0  0  0  0
   -4.0896   -5.5015  -16.7344 C   0  0  0  0  0  0  0  0  0  0  0  0
   -4.2236   -5.8723  -18.2098 C   0  0  0  0  0  0  0  0  0  0  0  0
   -6.9328   -2.8288  -19.5745 C   0  0  0  0  0  0  0  0  0  0  0  0
   -6.6982   -1.9441  -18.3653 C   0  0  2  0  0  0  0  0  0  0  0  0
   -7.5509   -0.7075  -18.4572 C   0  0  2  0  0  0  0  0  0  0  0  0
   -6.7358    0.3164  -17.7176 C   0  0  2  0  0  0  0  0  0  0  0  0
   -5.3238   -0.2173  -17.8538 C   0  0  2  0  0  0  0  0  0  0  0  0
   -4.7813    0.8047  -20.1042 C   0  0  0  0  0  0  0  0  0  0  0  0
   -3.0272    1.9135  -19.6431 C   0  0  0  0  0  0  0  0  0  0  0  0
   -3.4512    1.3084  -18.5148 C   0  0  0  0  0  0  0  0  0  0  0  0
   -1.6741    2.1996  -17.2946 C   0  0  0  0  0  0  0  0  0  0  0  0
   -1.8837    2.7000  -19.6176 C   0  0  0  0  0  0  0  0  0  0  0  0
   -2.8184   -4.6849  -16.5529 C   0  0  0  0  0  0  0  0  0  0  0  0
   -5.2691   -4.6224  -16.3341 C   0  0  0  0  0  0  0  0  0  0  0  0
   -5.9357   -9.8698  -15.1282 C   0  0  0  0  0  0  0  0  0  0  0  0
   -6.9068   -8.7399  -15.1347 C   0  0  0  0  0  0  0  0  0  0  0  0
   -7.7480   -8.7776  -16.3954 C   0  0  0  0  0  0  0  0  0  0  0  0
   -8.9191   -7.8258  -16.2668 C   0  0  0  0  0  0  0  0  0  0  0  0
  -10.0082   -8.4560  -15.4119 C   0  0  0  0  0  0  0  0  0  0  0  0
  -11.1384   -7.4750  -15.2081 C   0  0  0  0  0  0  0  0  0  0  0  0
  -12.2610   -8.1167  -14.4055 C   0  0  0  0  0  0  0  0  0  0  0  0
  -12.0320   -7.9605  -12.9072 C   0  0  0  0  0  0  0  0  0  0  0  0
  -10.9787   -8.9298  -12.3907 C   0  0  0  0  0  0  0  0  0  0  0  0
  -11.5294  -10.3435  -12.3523 C   0  0  0  0  0  0  0  0  0  0  0  0
   -2.7745  -10.6750  -13.8684 N   0  0  0  0  0  0  0  0  0  0  0  0
   -1.7242   -7.5277  -15.2248 N   0  0  0  0  0  0  0  0  0  0  0  0
   -4.5558    0.6049  -18.7794 N   0  0  0  0  0  0  0  0  0  0  0  0
   -3.8457    1.6184  -20.6713 N   0  0  0  0  0  0  0  0  0  0  0  0
   -2.8019    1.4259  -17.3302 N   0  0  0  0  0  0  0  0  0  0  0  0
   -1.2238    2.8272  -18.4280 N   0  0  0  0  0  0  0  0  0  0  0  0
   -1.4049    3.3523  -20.7869 N   0  0  0  0  0  0  0  0  0  0  0  0
   -0.8774   -9.8389  -12.7888 O   0  0  0  0  0  0  0  0  0  0  0  0
   -2.8232   -8.4246  -17.0808 O   0  0  0  0  0  0  0  0  0  0  0  0
   -5.4683   -6.4673  -18.4599 O   0  0  0  0  0  0  0  0  0  0  0  0
   -6.7564   -7.5355  -20.4727 O   0  0  0  0  0  0  0  0  0  0  0  0
   -4.8502   -5.8332  -21.1332 O   0  0  0  0  0  0  0  0  0  0  0  0
   -5.4293   -3.4352  -21.9783 O   0  0  0  0  0  0  0  0  0  0  0  0
   -6.1115   -3.9554  -19.4959 O   0  0  0  0  0  0  0  0  0  0  0  0
   -5.3492   -1.5513  -18.3106 O   0  0  0  0  0  0  0  0  0  0  0  0
   -7.0751    0.3463  -16.3617 O   0  0  0  0  0  0  0  0  0  0  0  0
   -8.8001   -0.9183  -17.8607 O   0  0  0  0  0  0  0  0  0  0  0  0
  -11.3255   -0.5226  -18.4181 O   0  0  0  0  0  0  0  0  0  0  0  0
   -9.8653   -1.4848  -20.3589 O   0  0  0  0  0  0  0  0  0  0  0  0
   -9.6449    1.1433  -19.5254 O   0  0  0  0  0  0  0  0  0  0  0  0
   -7.4680   -5.0401  -21.6596 O   0  0  0  0  0  0  0  0  0  0  0  0
   -4.3117   -8.3342  -20.1114 O   0  0  0  0  0  0  0  0  0  0  0  0
   -4.1993   -6.4879  -14.5115 O   0  0  0  0  0  0  0  0  0  0  0  0
   -5.0909   -9.9576  -16.0020 O   0  0  0  0  0  0  0  0  0  0  0  0
   -5.3924   -7.0368  -20.0558 P   0  0  1  0  0  0  0  0  0  0  0  0
   -5.9564   -4.5399  -21.0821 P   0  0  2  0  0  0  0  0  0  0  0  0
   -9.9431   -0.4463  -19.0241 P   0  0  0  0  0  0  0  0  0  0  0  0
  2  1  1  0
  2  3  1  0
  3 33  1  0
  5  4  1  0
  5  6  1  0
  6 34  1  0
  8  7  1  0
  8  9  1  0
  8 55  1  1
  9 10  1  0
  9 21  1  0
  9 22  1  0
 10 42  1  0
 11 46  1  0
 12 11  1  6
 12 13  1  0
 12 47  1  0
 13 14  1  0
 13 49  1  1
 14 15  1  0
 14 48  1  1
 15 47  1  0
 15 35  1  6
 17 36  1  0
 18 37  2  0
 18 35  1  0
 19 38  2  0
 20 39  1  0
 20 17  2  0
 23  1  1  0
 24 23  1  0
 24 25  1  0
 25 26  1  0
 26 27  1  0
 27 28  1  0
 28 29  1  0
 29 30  1  0
 30 31  1  0
 31 32  1  0
 33  4  1  0
 34  7  1  0
 35 16  1  0
 57 42  1  0
 57 44  1  0
 57 54  1  1
 58 44  1  0
 58 46  1  0
 58 53  1  6
 59 49  1  0
 59 51  1  0
 59 52  1  0
  4 40  2  0
  7 41  2  0
 16 36  2  0
 17 18  1  0
 19 37  1  0
 20 38  1  0
 23 56  2  0
 57 43  2  0
 58 45  2  0
 59 50  2  0
M  END
>  <rmsd>  (1) 
0.687954366

$$$$
CHEMBL505121 MolPort-046-162-809 PubChem-129316182 PubChem-44571034
     RDKit          3D

 64 66  0  0  0  0  0  0  0  0999 V2000
   -3.8264  -24.6514  -24.8478 C   0  0  0  0  0  0  0  0  0  0  0  0
   -3.2453  -23.3133  -25.1254 C   0  0  0  0  0  0  0  0  0  0  0  0
   -1.2416  -21.7737  -25.0632 C   0  0  1  0  0  0  0  0  0  0  0  0
   -1.2213  -20.9622  -23.7727 C   0  0  0  0  0  0  0  0  0  0  0  0
   -2.5953  -20.3954  -23.4349 C   0  0  0  0  0  0  0  0  0  0  0  0
   -3.0226  -19.3177  -24.4267 C   0  0  0  0  0  0  0  0  0  0  0  0
   -2.1183  -18.0944  -24.3515 C   0  0  0  0  0  0  0  0  0  0  0  0
   -3.4755  -16.6131  -22.8027 C   0  0  0  0  0  0  0  0  0  0  0  0
   -3.5832  -15.9004  -21.4983 C   0  0  0  0  0  0  0  0  0  0  0  0
   -1.0680  -15.2034  -21.1367 C   0  0  0  0  0  0  0  0  0  0  0  0
    0.0919  -14.2307  -21.2224 C   0  0  0  0  0  0  0  0  0  0  0  0
   -0.0643  -11.9499  -20.1657 C   0  0  0  0  0  0  0  0  0  0  0  0
    0.0086  -11.1054  -18.9403 C   0  0  0  0  0  0  0  0  0  0  0  0
   -1.3669  -10.9306  -18.3175 C   0  0  0  0  0  0  0  0  0  0  0  0
   -2.6265   -8.7730  -18.6423 C   0  0  0  0  0  0  0  0  0  0  0  0
   -3.4410   -7.8684  -19.5168 C   0  0  1  0  0  0  0  0  0  0  0  0
   -2.7328   -7.4229  -20.8188 C   0  0  0  0  0  0  0  0  0  0  0  0
   -2.6418   -8.5633  -21.8241 C   0  0  0  0  0  0  0  0  0  0  0  0
   -1.3236   -6.9415  -20.5172 C   0  0  0  0  0  0  0  0  0  0  0  0
   -3.4732   -6.2400  -21.4436 C   0  0  0  0  0  0  0  0  0  0  0  0
   -6.0988   -1.5272  -18.7877 C   0  0  0  0  0  0  0  0  0  0  0  0
   -5.4036   -1.0864  -17.5090 C   0  0  2  0  0  0  0  0  0  0  0  0
   -3.6881    0.2576  -16.9012 C   0  0  1  0  0  0  0  0  0  0  0  0
   -4.9265    0.8264  -16.2307 C   0  0  1  0  0  0  0  0  0  0  0  0
   -6.0512    0.1641  -16.9778 C   0  0  2  0  0  0  0  0  0  0  0  0
   -2.8491    1.4225  -18.9923 C   0  0  0  0  0  0  0  0  0  0  0  0
   -1.8492    3.1026  -18.1658 C   0  0  0  0  0  0  0  0  0  0  0  0
   -1.1442    4.2662  -17.8948 C   0  0  0  0  0  0  0  0  0  0  0  0
   -1.5146    3.8691  -15.5715 C   0  0  0  0  0  0  0  0  0  0  0  0
   -2.3563    2.3714  -17.1509 C   0  0  0  0  0  0  0  0  0  0  0  0
    0.1518  -21.9663  -25.5614 C   0  0  0  0  0  0  0  0  0  0  0  0
   -3.9695  -22.4089  -25.6201 O   0  0  0  0  0  0  0  0  0  0  0  0
   -4.3981  -16.4994  -23.6539 O   0  0  0  0  0  0  0  0  0  0  0  0
   -0.2957  -11.4164  -21.2844 O   0  0  0  0  0  0  0  0  0  0  0  0
   -2.3529   -8.4091  -17.4684 O   0  0  0  0  0  0  0  0  0  0  0  0
   -4.6799   -8.4583  -19.7812 O   0  0  0  0  0  0  0  0  0  0  0  0
   -4.7573   -6.5963  -21.8750 O   0  0  0  0  0  0  0  0  0  0  0  0
   -7.3574   -5.7043  -21.8058 O   0  0  0  0  0  0  0  0  0  0  0  0
   -5.3407   -4.0401  -21.8431 O   0  0  0  0  0  0  0  0  0  0  0  0
   -5.7323   -5.3900  -19.5830 O   0  0  0  0  0  0  0  0  0  0  0  0
   -6.7189   -4.1154  -17.3527 O   0  0  0  0  0  0  0  0  0  0  0  0
   -7.8212   -3.7613  -19.6912 O   0  0  0  0  0  0  0  0  0  0  0  0
   -5.4576   -2.6454  -19.3268 O   0  0  0  0  0  0  0  0  0  0  0  0
   -4.0527   -0.7995  -17.7642 O   0  0  0  0  0  0  0  0  0  0  0  0
   -4.9231    0.4497  -14.8847 O   0  0  0  0  0  0  0  0  0  0  0  0
   -7.1338   -0.1442  -16.1430 O   0  0  0  0  0  0  0  0  0  0  0  0
   -9.7376    0.6403  -15.6563 O   0  0  0  0  0  0  0  0  0  0  0  0
   -7.9939    2.4044  -16.8542 O   0  0  0  0  0  0  0  0  0  0  0  0
   -8.8578    0.2608  -18.0871 O   0  0  0  0  0  0  0  0  0  0  0  0
    0.4862  -21.4857  -26.6740 O   0  0  0  0  0  0  0  0  0  0  0  0
   -1.8684  -23.0695  -24.8397 N   0  0  0  0  0  0  0  0  0  0  0  0
   -2.3075  -17.3860  -23.0925 N   0  0  0  0  0  0  0  0  0  0  0  0
    0.0982  -13.3633  -20.0552 N   0  0  0  0  0  0  0  0  0  0  0  0
   -2.1704  -10.0346  -19.1329 N   0  0  0  0  0  0  0  0  0  0  0  0
   -2.9959    1.3072  -17.6457 N   0  0  0  0  0  0  0  0  0  0  0  0
   -2.1413    2.5319  -19.3490 N   0  0  0  0  0  0  0  0  0  0  0  0
   -0.5976    5.0644  -18.9387 N   0  0  0  0  0  0  0  0  0  0  0  0
   -0.9899    4.6292  -16.5867 N   0  0  0  0  0  0  0  0  0  0  0  0
   -2.2084    2.7230  -15.8489 N   0  0  0  0  0  0  0  0  0  0  0  0
    1.1062  -22.6864  -24.7865 N   0  0  0  0  0  0  0  0  0  0  0  0
   -2.6249  -14.3578  -21.5488 S   0  0  0  0  0  0  0  0  0  0  0  0
   -5.7814   -5.3782  -21.2866 P   0  0  2  0  0  0  0  0  0  0  0  0
   -6.4790   -3.9668  -19.0216 P   0  0  2  0  0  0  0  0  0  0  0  0
   -8.4365    0.7753  -16.7291 P   0  0  0  0  0  0  0  0  0  0  0  0
  1  2  1  0
  2 51  1  0
  3 51  1  0
  3  4  1  1
  3 31  1  0
  4  5  1  0
  5  6  1  0
  6  7  1  0
  7 52  1  0
  9  8  1  0
  9 61  1  0
 10 61  1  0
 10 11  1  0
 11 53  1  0
 13 12  1  0
 13 14  1  0
 14 54  1  0
 16 15  1  0
 16 36  1  6
 16 17  1  0
 17 18  1  0
 17 19  1  0
 17 20  1  0
 20 37  1  0
 21 43  1  0
 22 21  1  6
 22 44  1  0
 23 44  1  0
 23 24  1  0
 23 55  1  6
 24 45  1  1
 24 25  1  0
 25 46  1  1
 25 22  1  0
 27 56  1  0
 28 57  1  0
 28 58  2  0
 29 59  2  0
 30 55  1  0
 30 27  2  0
 31 60  1  0
 52  8  1  0
 53 12  1  0
 54 15  1  0
 55 26  1  0
 62 37  1  0
 62 38  1  1
 62 40  1  0
 63 40  1  0
 63 41  1  1
 63 43  1  0
 64 46  1  0
 64 47  1  0
 64 48  1  0
  2 32  2  0
  8 33  2  0
 12 34  2  0
 15 35  2  0
 26 56  2  0
 27 28  1  0
 29 58  1  0
 30 59  1  0
 31 50  2  0
 62 39  2  0
 63 42  2  0
 64 49  2  0
M  END
>  <rmsd>  (2) 
0.631882668

$$$$
CHEMBL1161857 PubChem-11849527 PubChem-11849528
     RDKit          3D

 63 65  0  0  0  0  0  0  0  0999 V2000
   -5.1856   -6.7887  -19.9744 P   0  0  2  0  0  0  0  0  0  0  0  0
   -7.5095   -5.3046  -20.0542 P   0  0  2  0  0  0  0  0  0  0  0  0
   -9.7808   -1.2948  -17.7862 P   0  0  0  0  0  0  0  0  0  0  0  0
   -4.6214   -8.1602  -19.6792 O   0  0  0  0  0  0  0  0  0  0  0  0
   -6.8467   -6.8042  -19.5940 O   0  0  0  0  0  0  0  0  0  0  0  0
   -7.3242   -5.0728  -21.5375 O   0  0  0  0  0  0  0  0  0  0  0  0
   -6.7910   -4.0356  -19.1906 O   0  0  0  0  0  0  0  0  0  0  0  0
   -5.3145   -2.9010  -17.1181 O   0  0  0  0  0  0  0  0  0  0  0  0
   -6.6120   -0.1658  -15.8016 O   0  0  0  0  0  0  0  0  0  0  0  0
   -8.5724   -1.6404  -16.6461 O   0  0  0  0  0  0  0  0  0  0  0  0
  -10.0240   -2.5031  -18.6636 O   0  0  0  0  0  0  0  0  0  0  0  0
  -11.2104   -0.9045  -16.9715 O   0  0  0  0  0  0  0  0  0  0  0  0
   -9.3179    0.0197  -18.7473 O   0  0  0  0  0  0  0  0  0  0  0  0
   -9.1706   -5.3311  -19.7289 O   0  0  0  0  0  0  0  0  0  0  0  0
   -4.9495   -6.4648  -21.6181 O   0  0  0  0  0  0  0  0  0  0  0  0
   -4.3550   -5.6197  -19.0651 O   0  0  0  0  0  0  0  0  0  0  0  0
   -1.1514   -5.4246  -19.4851 O   0  0  0  0  0  0  0  0  0  0  0  0
   -3.0485  -10.0728  -21.1845 O   0  0  0  0  0  0  0  0  0  0  0  0
   -6.2046  -12.7560  -22.4565 O   0  0  0  0  0  0  0  0  0  0  0  0
   -7.4534  -15.3826  -19.6671 O   0  0  0  0  0  0  0  0  0  0  0  0
   -2.1579   -8.1270  -17.4027 O   0  0  0  0  0  0  0  0  0  0  0  0
   -7.1655   -4.2394  -17.8586 C   0  0  0  0  0  0  0  0  0  0  0  0
   -6.7004   -3.0813  -16.9889 C   0  0  2  0  0  0  0  0  0  0  0  0
   -7.3914   -1.8015  -17.3804 C   0  0  2  0  0  0  0  0  0  0  0  0
   -6.3693   -0.7451  -17.0532 C   0  0  2  0  0  0  0  0  0  0  0  0
   -5.0649   -1.5188  -16.9919 C   0  0  2  0  0  0  0  0  0  0  0  0
   -3.7430   -1.7432  -19.1468 C   0  0  0  0  0  0  0  0  0  0  0  0
   -2.7596    0.1359  -19.2320 C   0  0  0  0  0  0  0  0  0  0  0  0
   -3.5254    0.1104  -18.1215 C   0  0  0  0  0  0  0  0  0  0  0  0
   -2.8316    2.2538  -17.5184 C   0  0  0  0  0  0  0  0  0  0  0  0
   -1.9908    1.2558  -19.5141 C   0  0  0  0  0  0  0  0  0  0  0  0
   -4.3391   -6.0992  -17.7510 C   0  0  0  0  0  0  0  0  0  0  0  0
   -2.9834   -5.8642  -17.0747 C   0  0  0  0  0  0  0  0  0  0  0  0
   -1.8679   -6.7783  -17.6391 C   0  0  2  0  0  0  0  0  0  0  0  0
   -1.5375   -6.5595  -19.0945 C   0  0  0  0  0  0  0  0  0  0  0  0
   -1.3755   -7.4543  -21.4446 C   0  0  0  0  0  0  0  0  0  0  0  0
   -1.2869   -8.7940  -22.1597 C   0  0  0  0  0  0  0  0  0  0  0  0
   -2.6107   -9.4775  -22.2062 C   0  0  0  0  0  0  0  0  0  0  0  0
   -4.6735  -10.0961  -23.5325 C   0  0  0  0  0  0  0  0  0  0  0  0
   -5.7098   -9.2227  -22.8491 C   0  0  0  0  0  0  0  0  0  0  0  0
   -6.9506  -10.8519  -21.1873 C   0  0  0  0  0  0  0  0  0  0  0  0
   -6.3570  -12.2211  -21.3228 C   0  0  0  0  0  0  0  0  0  0  0  0
   -5.3921  -14.2598  -20.1763 C   0  0  1  0  0  0  0  0  0  0  0  0
   -4.6930  -14.5473  -18.8528 C   0  0  0  0  0  0  0  0  0  0  0  0
   -3.7489  -15.7327  -18.9794 C   0  0  0  0  0  0  0  0  0  0  0  0
   -2.4997  -15.3335  -19.7519 C   0  0  0  0  0  0  0  0  0  0  0  0
   -0.9084  -16.9646  -18.9133 C   0  0  0  0  0  0  0  0  0  0  0  0
   -6.4642  -15.2735  -20.4447 C   0  0  0  0  0  0  0  0  0  0  0  0
   -3.1571   -6.1671  -15.5967 C   0  0  0  0  0  0  0  0  0  0  0  0
   -2.5812   -4.4000  -17.1765 C   0  0  0  0  0  0  0  0  0  0  0  0
   -4.1596   -1.0645  -18.0459 N   0  0  0  0  0  0  0  0  0  0  0  0
   -2.8715   -1.0220  -19.9078 N   0  0  0  0  0  0  0  0  0  0  0  0
   -3.5831    1.1440  -17.2459 N   0  0  0  0  0  0  0  0  0  0  0  0
   -2.0457    2.3043  -18.6419 N   0  0  0  0  0  0  0  0  0  0  0  0
   -1.1638    1.3163  -20.6687 N   0  0  0  0  0  0  0  0  0  0  0  0
   -1.6180   -7.6442  -20.0223 N   0  0  0  0  0  0  0  0  0  0  0  0
   -3.3563   -9.4820  -23.4239 N   0  0  0  0  0  0  0  0  0  0  0  0
   -5.9633  -12.9205  -20.1404 N   0  0  0  0  0  0  0  0  0  0  0  0
   -1.6030  -16.4734  -19.8903 N   0  0  0  0  0  0  0  0  0  0  0  0
   -0.9715  -16.3978  -17.6081 N   0  0  0  0  0  0  0  0  0  0  0  0
   -0.0675  -18.0865  -19.1482 N   0  0  0  0  0  0  0  0  0  0  0  0
   -6.3639  -16.1214  -21.5857 N   0  0  0  0  0  0  0  0  0  0  0  0
   -7.3153  -10.0736  -22.7961 S   0  0  0  0  0  0  0  0  0  0  0  0
  1  5  1  0
  1 15  1  6
  1 16  1  0
  2  5  1  0
  2  7  1  0
  2 14  1  6
  3 10  1  0
  3 12  1  0
  3 13  1  0
 22  7  1  0
 23 22  1  6
 23 24  1  0
 23  8  1  0
 24 25  1  0
 24 10  1  1
 25 26  1  0
 25  9  1  1
 26  8  1  0
 26 51  1  6
 28 52  1  0
 29 53  2  0
 29 51  1  0
 30 54  2  0
 31 55  1  0
 31 28  2  0
 32 16  1  0
 32 33  1  0
 33 34  1  0
 33 49  1  0
 33 50  1  0
 34 35  1  0
 34 21  1  6
 35 56  1  0
 36 56  1  0
 36 37  1  0
 37 38  1  0
 38 57  1  0
 39 57  1  0
 39 40  1  0
 40 63  1  0
 41 63  1  0
 41 42  1  0
 42 58  1  0
 43 58  1  0
 43 44  1  1
 43 48  1  0
 44 45  1  0
 45 46  1  0
 46 59  1  0
 47 60  1  0
 47 61  1  0
 48 62  1  0
 51 27  1  0
  1  4  2  0
  2  6  2  0
  3 11  2  0
 27 52  2  0
 28 29  1  0
 30 53  1  0
 31 54  1  0
 35 17  2  0
 38 18  2  0
 42 19  2  0
 47 59  2  0
 48 20  2  0
M  END
>  <rmsd>  (3) 
0.562522888

$$$$
