CHEMBL1949897 PubChem-440615
     RDKit          3D

 59 61  0  0  0  0  0  0  0  0999 V2000
   -6.0009  -11.0962  -13.8244 S   0  0  0  0  0  0  0  0  0  0  0  0
   -4.8713  -10.1539  -12.7514 C   0  0  0  0  0  0  0  0  0  0  0  0
   -3.5318  -10.8645  -12.6436 C   0  0  0  0  0  0  0  0  0  0  0  0
   -1.4679  -10.1008  -13.8720 C   0  0  0  0  0  0  0  0  0  0  0  0
   -0.8030   -9.8163  -15.1768 C   0  0  0  0  0  0  0  0  0  0  0  0
   -0.5124   -8.3297  -15.3553 C   0  0  0  0  0  0  0  0  0  0  0  0
   -2.8479   -7.6347  -16.1018 C   0  0  0  0  0  0  0  0  0  0  0  0
   -4.0605   -6.7803  -15.8711 C   0  0  2  0  0  0  0  0  0  0  0  0
   -4.0896   -5.5015  -16.7344 C   0  0  0  0  0  0  0  0  0  0  0  0
   -4.2236   -5.8723  -18.2098 C   0  0  0  0  0  0  0  0  0  0  0  0
   -6.9328   -2.8288  -19.5745 C   0  0  0  0  0  0  0  0  0  0  0  0
   -6.6982   -1.9441  -18.3653 C   0  0  2  0  0  0  0  0  0  0  0  0
   -7.5509   -0.7075  -18.4572 C   0  0  2  0  0  0  0  0  0  0  0  0
   -6.7358    0.3164  -17.7176 C   0  0  2  0  0  0  0  0  0  0  0  0
   -5.3238   -0.2173  -17.8538 C   0  0  2  0  0  0  0  0  0  0  0  0
   -4.7813    0.8047  -20.1042 C   0  0  0  0  0  0  0  0  0  0  0  0
   -3.0272    1.9135  -19.6431 C   0  0  0  0  0  0  0  0  0  0  0  0
   -3.4512    1.3084  -18.5148 C   0  0  0  0  0  0  0  0  0  0  0  0
   -1.6741    2.1996  -17.2946 C   0  0  0  0  0  0  0  0  0  0  0  0
   -1.8837    2.7000  -19.6176 C   0  0  0  0  0  0  0  0  0  0  0  0
   -2.8184   -4.6849  -16.5529 C   0  0  0  0  0  0  0  0  0  0  0  0
   -5.2691   -4.6224  -16.3341 C   0  0  0  0  0  0  0  0  0  0  0  0
   -5.9357   -9.8698  -15.1282 C   0  0  0  0  0  0  0  0  0  0  0  0
   -6.9068   -8.7399  -15.1347 C   0  0  0  0  0  0  0  0  0  0  0  0
   -7.7480   -8.7776  -16.3954 C   0  0  0  0  0  0  0  0  0  0  0  0
   -8.9191   -7.8258  -16.2668 C   0  0  0  0  0  0  0  0  0  0  0  0
  -10.0082   -8.4560  -15.4119 C   0  0  0  0  0  0  0  0  0  0  0  0
  -11.1384   -7.4750  -15.2081 C   0  0  0  0  0  0  0  0  0  0  0  0
  -12.2610   -8.1167  -14.4055 C   0  0  0  0  0  0  0  0  0  0  0  0
  -12.0320   -7.9605  -12.9072 C   0  0  0  0  0  0  0  0  0  0  0  0
  -10.9787   -8.9298  -12.3907 C   0  0  0  0  0  0  0  0  0  0  0  0
  -11.5294  -10.3435  -12.3523 C   0  0  0  0  0  0  0  0  0  0  0  0
   -2.7745  -10.6750  -13.8684 N   0  0  0  0  0  0  0  0  0  0  0  0
   -1.7242   -7.5277  -15.2248 N   0  0  0  0  0  0  0  0  0  0  0  0
   -4.5558    0.6049  -18.7794 N   0  0  0  0  0  0  0  0  0  0  0  0
   -3.8457    1.6184  -20.6713 N   0  0  0  0  0  0  0  0  0  0  0  0
   -2.8019    1.4259  -17.3302 N   0  0  0  0  0  0  0  0  0  0  0  0
   -1.2238    2.8272  -18.4280 N   0  0  0  0  0  0  0  0  0  0  0  0
   -1.4049    3.3523  -20.7869 N   0  0  0  0  0  0  0  0  0  0  0  0
   -0.8774   -9.8389  -12.7888 O   0  0  0  0  0  0  0  0  0  0  0  0
   -2.8232   -8.4246  -17.0808 O   0  0  0  0  0  0  0  0  0  0  0  0
   -5.4683   -6.4673  -18.4599 O   0  0  0  0  0  0  0  0  0  0  0  0
   -6.7564   -7.5355  -20.4727 O   0  0  0  0  0  0  0  0  0  0  0  0
   -4.8502   -5.8332  -21.1332 O   0  0  0  0  0  0  0  0  0  0  0  0
   -5.4293   -3.4352  -21.9783 O   0  0  0  0  0  0  0  0  0  0  0  0
   -6.1115   -3.9554  -19.4959 O   0  0  0  0  0  0  0  0  0  0  0  0
   -5.3492   -1.5513  -18.3106 O   0  0  0  0  0  0  0  0  0  0  0  0
   -7.0751    0.3463  -16.3617 O   0  0  0  0  0  0  0  0  0  0  0  0
   -8.8001   -0.9183  -17.8607 O   0  0  0  0  0  0  0  0  0  0  0  0
  -11.3255   -0.5226  -18.4181 O   0  0  0  0  0  0  0  0  0  0  0  0
   -9.8653   -1.4848  -20.3589 O   0  0  0  0  0  0  0  0  0  0  0  0
   -9.6449    1.1433  -19.5254 O   0  0  0  0  0  0  0  0  0  0  0  0
   -7.4680   -5.0401  -21.6596 O   0  0  0  0  0  0  0  0  0  0  0  0
   -4.3117   -8.3342  -20.1114 O   0  0  0  0  0  0  0  0  0  0  0  0
   -4.1993   -6.4879  -14.5115 O   0  0  0  0  0  0  0  0  0  0  0  0
   -5.0909   -9.9576  -16.0020 O   0  0  0  0  0  0  0  0  0  0  0  0
   -5.3924   -7.0368  -20.0558 P   0  0  1  0  0  0  0  0  0  0  0  0
   -5.9564   -4.5399  -21.0821 P   0  0  2  0  0  0  0  0  0  0  0  0
   -9.9431   -0.4463  -19.0241 P   0  0  0  0  0  0  0  0  0  0  0  0
  2  1  1  0
  2  3  1  0
  3 33  1  0
  5  4  1  0
  5  6  1  0
  6 34  1  0
  8  7  1  0
  8  9  1  0
  8 55  1  1
  9 10  1  0
  9 21  1  0
  9 22  1  0
 10 42  1  0
 11 46  1  0
 12 11  1  6
 12 13  1  0
 12 47  1  0
 13 14  1  0
 13 49  1  1
 14 15  1  0
 14 48  1  1
 15 47  1  0
 15 35  1  6
 17 36  1  0
 18 37  2  0
 18 35  1  0
 19 38  2  0
 20 39  1  0
 20 17  2  0
 23  1  1  0
 24 23  1  0
 24 25  1  0
 25 26  1  0
 26 27  1  0
 27 28  1  0
 28 29  1  0
 29 30  1  0
 30 31  1  0
 31 32  1  0
 33  4  1  0
 34  7  1  0
 35 16  1  0
 57 42  1  0
 57 44  1  0
 57 54  1  1
 58 44  1  0
 58 46  1  0
 58 53  1  6
 59 49  1  0
 59 51  1  0
 59 52  1  0
  4 40  2  0
  7 41  2  0
 16 36  2  0
 17 18  1  0
 19 37  1  0
 20 38  1  0
 23 56  2  0
 57 43  2  0
 58 45  2  0
 59 50  2  0
M  END
>  <rmsd>  (1) 
0.687954366

$$$$
CHEMBL505121 MolPort-046-162-809 PubChem-129316182 PubChem-44571034
     RDKit          3D

 64 66  0  0  0  0  0  0  0  0999 V2000
   -3.8264  -24.6514  -24.8478 C   0  0  0  0  0  0  0  0  0  0  0  0
   -3.2453  -23.3133  -25.1254 C   0  0  0  0  0  0  0  0  0  0  0  0
   -1.2416  -21.7737  -25.0632 C   0  0  1  0  0  0  0  0  0  0  0  0
   -1.2213  -20.9622  -23.7727 C   0  0  0  0  0  0  0  0  0  0  0  0
   -2.5953  -20.3954  -23.4349 C   0  0  0  0  0  0  0  0  0  0  0  0
   -3.0226  -19.3177  -24.4267 C   0  0  0  0  0  0  0  0  0  0  0  0
   -2.1183  -18.0944  -24.3515 C   0  0  0  0  0  0  0  0  0  0  0  0
   -3.4755  -16.6131  -22.8027 C   0  0  0  0  0  0  0  0  0  0  0  0
   -3.5832  -15.9004  -21.4983 C   0  0  0  0  0  0  0  0  0  0  0  0
   -1.0680  -15.2034  -21.1367 C   0  0  0  0  0  0  0  0  0  0  0  0
    0.0919  -14.2307  -21.2224 C   0  0  0  0  0  0  0  0  0  0  0  0
   -0.0643  -11.9499  -20.1657 C   0  0  0  0  0  0  0  0  0  0  0  0
    0.0086  -11.1054  -18.9403 C   0  0  0  0  0  0  0  0  0  0  0  0
   -1.3669  -10.9306  -18.3175 C   0  0  0  0  0  0  0  0  0  0  0  0
   -2.6265   -8.7730  -18.6423 C   0  0  0  0  0  0  0  0  0  0  0  0
   -3.4410   -7.8684  -19.5168 C   0  0  1  0  0  0  0  0  0  0  0  0
   -2.7328   -7.4229  -20.8188 C   0  0  0  0  0  0  0  0  0  0  0  0
   -2.6418   -8.5633  -21.8241 C   0  0  0  0  0  0  0  0  0  0  0  0
   -1.3236   -6.9415  -20.5172 C   0  0  0  0  0  0  0  0  0  0  0  0
   -3.4732   -6.2400  -21.4436 C   0  0  0  0  0  0  0  0  0  0  0  0
   -6.0988   -1.5272  -18.7877 C   0  0  0  0  0  0  0  0  0  0  0  0
   -5.4036   -1.0864  -17.5090 C   0  0  2  0  0  0  0  0  0  0  0  0
   -3.6881    0.2576  -16.9012 C   0  0  1  0  0  0  0  0  0  0  0  0
   -4.9265    0.8264  -16.2307 C   0  0  1  0  0  0  0  0  0  0  0  0
   -6.0512    0.1641  -16.9778 C   0  0  2  0  0  0  0  0  0  0  0  0
   -2.8491    1.4225  -18.9923 C   0  0  0  0  0  0  0  0  0  0  0  0
   -1.8492    3.1026  -18.1658 C   0  0  0  0  0  0  0  0  0  0  0  0
   -1.1442    4.2662  -17.8948 C   0  0  0  0  0  0  0  0  0  0  0  0
   -1.5146    3.8691  -15.5715 C   0  0  0  0  0  0  0  0  0  0  0  0
   -2.3563    2.3714  -17.1509 C   0  0  0  0  0  0  0  0  0  0  0  0
    0.1518  -21.9663  -25.5614 C   0  0  0  0  0  0  0  0  0  0  0  0
   -3.9695  -22.4089  -25.6201 O   0  0  0  0  0  0  0  0  0  0  0  0
   -4.3981  -16.4994  -23.6539 O   0  0  0  0  0  0  0  0  0  0  0  0
   -0.2957  -11.4164  -21.2844 O   0  0  0  0  0  0  0  0  0  0  0  0
   -2.3529   -8.4091  -17.4684 O   0  0  0  0  0  0  0  0  0  0  0  0
   -4.6799   -8.4583  -19.7812 O   0  0  0  0  0  0  0  0  0  0  0  0
   -4.7573   -6.5963  -21.8750 O   0  0  0  0  0  0  0  0  0  0  0  0
   -7.3574   -5.7043  -21.8058 O   0  0  0  0  0  0  0  0  0  0  0  0
   -5.3407   -4.0401  -21.8431 O   0  0  0  0  0  0  0  0  0  0  0  0
   -5.7323   -5.3900  -19.5830 O   0  0  0  0  0  0  0  0  0  0  0  0
   -6.7189   -4.1154  -17.3527 O   0  0  0  0  0  0  0  0  0  0  0  0
   -7.8212   -3.7613  -19.6912 O   0  0  0  0  0  0  0  0  0  0  0  0
   -5.4576   -2.6454  -19.3268 O   0  0  0  0  0  0  0  0  0  0  0  0
   -4.0527   -0.7995  -17.7642 O   0  0  0  0  0  0  0  0  0  0  0  0
   -4.9231    0.4497  -14.8847 O   0  0  0  0  0  0  0  0  0  0  0  0
   -7.1338   -0.1442  -16.1430 O   0  0  0  0  0  0  0  0  0  0  0  0
   -9.7376    0.6403  -15.6563 O   0  0  0  0  0  0  0  0  0  0  0  0
   -7.9939    2.4044  -16.8542 O   0  0  0  0  0  0  0  0  0  0  0  0
   -8.8578    0.2608  -18.0871 O   0  0  0  0  0  0  0  0  0  0  0  0
    0.4862  -21.4857  -26.6740 O   0  0  0  0  0  0  0  0  0  0  0  0
   -1.8684  -23.0695  -24.8397 N   0  0  0  0  0  0  0  0  0  0  0  0
   -2.3075  -17.3860  -23.0925 N   0  0  0  0  0  0  0  0  0  0  0  0
    0.0982  -13.3633  -20.0552 N   0  0  0  0  0  0  0  0  0  0  0  0
   -2.1704  -10.0346  -19.1329 N   0  0  0  0  0  0  0  0  0  0  0  0
   -2.9959    1.3072  -17.6457 N   0  0  0  0  0  0  0  0  0  0  0  0
   -2.1413    2.5319  -19.3490 N   0  0  0  0  0  0  0  0  0  0  0  0
   -0.5976    5.0644  -18.9387 N   0  0  0  0  0  0  0  0  0  0  0  0
   -0.9899    4.6292  -16.5867 N   0  0  0  0  0  0  0  0  0  0  0  0
   -2.2084    2.7230  -15.8489 N   0  0  0  0  0  0  0  0  0  0  0  0
    1.1062  -22.6864  -24.7865 N   0  0  0  0  0  0  0  0  0  0  0  0
   -2.6249  -14.3578  -21.5488 S   0  0  0  0  0  0  0  0  0  0  0  0
   -5.7814   -5.3782  -21.2866 P   0  0  2  0  0  0  0  0  0  0  0  0
   -6.4790   -3.9668  -19.0216 P   0  0  2  0  0  0  0  0  0  0  0  0
   -8.4365    0.7753  -16.7291 P   0  0  0  0  0  0  0  0  0  0  0  0
  1  2  1  0
  2 51  1  0
  3 51  1  0
  3  4  1  1
  3 31  1  0
  4  5  1  0
  5  6  1  0
  6  7  1  0
  7 52  1  0
  9  8  1  0
  9 61  1  0
 10 61  1  0
 10 11  1  0
 11 53  1  0
 13 12  1  0
 13 14  1  0
 14 54  1  0
 16 15  1  0
 16 36  1  6
 16 17  1  0
 17 18  1  0
 17 19  1  0
 17 20  1  0
 20 37  1  0
 21 43  1  0
 22 21  1  6
 22 44  1  0
 23 44  1  0
 23 24  1  0
 23 55  1  6
 24 45  1  1
 24 25  1  0
 25 46  1  1
 25 22  1  0
 27 56  1  0
 28 57  1  0
 28 58  2  0
 29 59  2  0
 30 55  1  0
 30 27  2  0
 31 60  1  0
 52  8  1  0
 53 12  1  0
 54 15  1  0
 55 26  1  0
 62 37  1  0
 62 38  1  1
 62 40  1  0
 63 40  1  0
 63 41  1  1
 63 43  1  0
 64 46  1  0
 64 47  1  0
 64 48  1  0
  2 32  2  0
  8 33  2  0
 12 34  2  0
 15 35  2  0
 26 56  2  0
 27 28  1  0
 29 58  1  0
 30 59  1  0
 31 50  2  0
 62 39  2  0
 63 42  2  0
 64 49  2  0
M  END
>  <rmsd>  (2) 
0.631882668

$$$$
CHEMBL1161857 PubChem-11849527 PubChem-11849528
     RDKit          3D

 63 65  0  0  0  0  0  0  0  0999 V2000
   -5.1856   -6.7887  -19.9744 P   0  0  2  0  0  0  0  0  0  0  0  0
   -7.5095   -5.3046  -20.0542 P   0  0  2  0  0  0  0  0  0  0  0  0
   -9.7808   -1.2948  -17.7862 P   0  0  0  0  0  0  0  0  0  0  0  0
   -4.6214   -8.1602  -19.6792 O   0  0  0  0  0  0  0  0  0  0  0  0
   -6.8467   -6.8042  -19.5940 O   0  0  0  0  0  0  0  0  0  0  0  0
   -7.3242   -5.0728  -21.5375 O   0  0  0  0  0  0  0  0  0  0  0  0
   -6.7910   -4.0356  -19.1906 O   0  0  0  0  0  0  0  0  0  0  0  0
   -5.3145   -2.9010  -17.1181 O   0  0  0  0  0  0  0  0  0  0  0  0
   -6.6120   -0.1658  -15.8016 O   0  0  0  0  0  0  0  0  0  0  0  0
   -8.5724   -1.6404  -16.6461 O   0  0  0  0  0  0  0  0  0  0  0  0
  -10.0240   -2.5031  -18.6636 O   0  0  0  0  0  0  0  0  0  0  0  0
  -11.2104   -0.9045  -16.9715 O   0  0  0  0  0  0  0  0  0  0  0  0
   -9.3179    0.0197  -18.7473 O   0  0  0  0  0  0  0  0  0  0  0  0
   -9.1706   -5.3311  -19.7289 O   0  0  0  0  0  0  0  0  0  0  0  0
   -4.9495   -6.4648  -21.6181 O   0  0  0  0  0  0  0  0  0  0  0  0
   -4.3550   -5.6197  -19.0651 O   0  0  0  0  0  0  0  0  0  0  0  0
   -1.1514   -5.4246  -19.4851 O   0  0  0  0  0  0  0  0  0  0  0  0
   -3.0485  -10.0728  -21.1845 O   0  0  0  0  0  0  0  0  0  0  0  0
   -6.2046  -12.7560  -22.4565 O   0  0  0  0  0  0  0  0  0  0  0  0
   -7.4534  -15.3826  -19.6671 O   0  0  0  0  0  0  0  0  0  0  0  0
   -2.1579   -8.1270  -17.4027 O   0  0  0  0  0  0  0  0  0  0  0  0
   -7.1655   -4.2394  -17.8586 C   0  0  0  0  0  0  0  0  0  0  0  0
   -6.7004   -3.0813  -16.9889 C   0  0  2  0  0  0  0  0  0  0  0  0
   -7.3914   -1.8015  -17.3804 C   0  0  2  0  0  0  0  0  0  0  0  0
   -6.3693   -0.7451  -17.0532 C   0  0  2  0  0  0  0  0  0  0  0  0
   -5.0649   -1.5188  -16.9919 C   0  0  2  0  0  0  0  0  0  0  0  0
   -3.7430   -1.7432  -19.1468 C   0  0  0  0  0  0  0  0  0  0  0  0
   -2.7596    0.1359  -19.2320 C   0  0  0  0  0  0  0  0  0  0  0  0
   -3.5254    0.1104  -18.1215 C   0  0  0  0  0  0  0  0  0  0  0  0
   -2.8316    2.2538  -17.5184 C   0  0  0  0  0  0  0  0  0  0  0  0
   -1.9908    1.2558  -19.5141 C   0  0  0  0  0  0  0  0  0  0  0  0
   -4.3391   -6.0992  -17.7510 C   0  0  0  0  0  0  0  0  0  0  0  0
   -2.9834   -5.8642  -17.0747 C   0  0  0  0  0  0  0  0  0  0  0  0
   -1.8679   -6.7783  -17.6391 C   0  0  2  0  0  0  0  0  0  0  0  0
   -1.5375   -6.5595  -19.0945 C   0  0  0  0  0  0  0  0  0  0  0  0
   -1.3755   -7.4543  -21.4446 C   0  0  0  0  0  0  0  0  0  0  0  0
   -1.2869   -8.7940  -22.1597 C   0  0  0  0  0  0  0  0  0  0  0  0
   -2.6107   -9.4775  -22.2062 C   0  0  0  0  0  0  0  0  0  0  0  0
   -4.6735  -10.0961  -23.5325 C   0  0  0  0  0  0  0  0  0  0  0  0
   -5.7098   -9.2227  -22.8491 C   0  0  0  0  0  0  0  0  0  0  0  0
   -6.9506  -10.8519  -21.1873 C   0  0  0  0  0  0  0  0  0  0  0  0
   -6.3570  -12.2211  -21.3228 C   0  0  0  0  0  0  0  0  0  0  0  0
   -5.3921  -14.2598  -20.1763 C   0  0  1  0  0  0  0  0  0  0  0  0
   -4.6930  -14.5473  -18.8528 C   0  0  0  0  0  0  0  0  0  0  0  0
   -3.7489  -15.7327  -18.9794 C   0  0  0  0  0  0  0  0  0  0  0  0
   -2.4997  -15.3335  -19.7519 C   0  0  0  0  0  0  0  0  0  0  0  0
   -0.9084  -16.9646  -18.9133 C   0  0  0  0  0  0  0  0  0  0  0  0
   -6.4642  -15.2735  -20.4447 C   0  0  0  0  0  0  0  0  0  0  0  0
   -3.1571   -6.1671  -15.5967 C   0  0  0  0  0  0  0  0  0  0  0  0
   -2.5812   -4.4000  -17.1765 C   0  0  0  0  0  0  0  0  0  0  0  0
   -4.1596   -1.0645  -18.0459 N   0  0  0  0  0  0  0  0  0  0  0  0
   -2.8715   -1.0220  -19.9078 N   0  0  0  0  0  0  0  0  0  0  0  0
   -3.5831    1.1440  -17.2459 N   0  0  0  0  0  0  0  0  0  0  0  0
   -2.0457    2.3043  -18.6419 N   0  0  0  0  0  0  0  0  0  0  0  0
   -1.1638    1.3163  -20.6687 N   0  0  0  0  0  0  0  0  0  0  0  0
   -1.6180   -7.6442  -20.0223 N   0  0  0  0  0  0  0  0  0  0  0  0
   -3.3563   -9.4820  -23.4239 N   0  0  0  0  0  0  0  0  0  0  0  0
   -5.9633  -12.9205  -20.1404 N   0  0  0  0  0  0  0  0  0  0  0  0
   -1.6030  -16.4734  -19.8903 N   0  0  0  0  0  0  0  0  0  0  0  0
   -0.9715  -16.3978  -17.6081 N   0  0  0  0  0  0  0  0  0  0  0  0
   -0.0675  -18.0865  -19.1482 N   0  0  0  0  0  0  0  0  0  0  0  0
   -6.3639  -16.1214  -21.5857 N   0  0  0  0  0  0  0  0  0  0  0  0
   -7.3153  -10.0736  -22.7961 S   0  0  0  0  0  0  0  0  0  0  0  0
  1  5  1  0
  1 15  1  6
  1 16  1  0
  2  5  1  0
  2  7  1  0
  2 14  1  6
  3 10  1  0
  3 12  1  0
  3 13  1  0
 22  7  1  0
 23 22  1  6
 23 24  1  0
 23  8  1  0
 24 25  1  0
 24 10  1  1
 25 26  1  0
 25  9  1  1
 26  8  1  0
 26 51  1  6
 28 52  1  0
 29 53  2  0
 29 51  1  0
 30 54  2  0
 31 55  1  0
 31 28  2  0
 32 16  1  0
 32 33  1  0
 33 34  1  0
 33 49  1  0
 33 50  1  0
 34 35  1  0
 34 21  1  6
 35 56  1  0
 36 56  1  0
 36 37  1  0
 37 38  1  0
 38 57  1  0
 39 57  1  0
 39 40  1  0
 40 63  1  0
 41 63  1  0
 41 42  1  0
 42 58  1  0
 43 58  1  0
 43 44  1  1
 43 48  1  0
 44 45  1  0
 45 46  1  0
 46 59  1  0
 47 60  1  0
 47 61  1  0
 48 62  1  0
 51 27  1  0
  1  4  2  0
  2  6  2  0
  3 11  2  0
 27 52  2  0
 28 29  1  0
 30 53  1  0
 31 54  1  0
 35 17  2  0
 38 18  2  0
 42 19  2  0
 47 59  2  0
 48 20  2  0
M  END
>  <rmsd>  (3) 
0.562522888

$$$$
