CHEMBL595984_negative1
     RDKit          3D

62 66  0     1  0  0  0  0  0999 V2000
    0.4661   -0.4857    1.7669 S   0  0  0  0  0  0  0  0  0  0  0  0
    5.8819    3.2514    0.5687 F   0  0  0  0  0  0  0  0  0  0  0  0
    5.3433    1.3175    2.4240 F   0  0  0  0  0  0  0  0  0  0  0  0
   -4.1196   -0.1508    1.4252 O   0  0  0  0  0  0  0  0  0  0  0  0
   -6.2725   -0.3890   -1.1887 O   0  0  0  0  0  0  0  0  0  0  0  0
   -5.6025   -1.2230    2.7346 O   0  0  0  0  0  0  0  0  0  0  0  0
    1.5405    2.7814   -1.2808 N   0  0  0  0  0  0  0  0  0  0  0  0
   -0.6330    2.6360   -2.3080 C   0  0  0  0  0  0  0  0  0  0  0  0
   -0.4901    4.0135   -2.8859 C   0  0  0  0  0  0  0  0  0  0  0  0
   -1.6349    3.6998   -1.9677 C   0  0  0  0  0  0  0  0  0  0  0  0
    0.3333    2.1710   -1.2622 C   0  0  0  0  0  0  0  0  0  0  0  0
   -0.0229    1.1873   -0.3622 C   0  0  0  0  0  0  0  0  0  0  0  0
    0.9227    0.8061    0.5789 C   0  0  0  0  0  0  0  0  0  0  0  0
    2.4560    2.4093   -0.3665 C   0  0  0  0  0  0  0  0  0  0  0  0
   -1.3685    0.5939   -0.4378 C   0  0  0  0  0  0  0  0  0  0  0  0
    2.1859    1.4125    0.5944 C   0  0  0  0  0  0  0  0  0  0  0  0
   -3.7943    0.3933    0.1276 C   0  0  2  0  0  0  0  0  0  0  0  0
   -2.4473    1.0338    0.2279 C   0  0  0  0  0  0  0  0  0  0  0  0
   -4.8430    1.3817   -0.3627 C   0  0  0  0  0  0  0  0  0  0  0  0
   -6.2125    0.7297   -0.3081 C   0  0  2  0  0  0  0  0  0  0  0  0
    3.7112    3.0116   -0.3503 C   0  0  0  0  0  0  0  0  0  0  0  0
    3.1654    1.0485    1.5341 C   0  0  0  0  0  0  0  0  0  0  0  0
   -6.5129    0.2632    1.1030 C   0  0  0  0  0  0  0  0  0  0  0  0
   -5.3839   -0.4626    1.7936 C   0  0  0  0  0  0  0  0  0  0  0  0
    4.6851    2.6500    0.5837 C   0  0  0  0  0  0  0  0  0  0  0  0
    4.4123    1.6672    1.5271 C   0  0  0  0  0  0  0  0  0  0  0  0
    0.9874   -1.9365    0.8749 C   0  0  0  0  0  0  0  0  0  0  0  0
    2.2847   -2.4245    1.0330 C   0  0  0  0  0  0  0  0  0  0  0  0
    0.0981   -2.5844    0.0174 C   0  0  0  0  0  0  0  0  0  0  0  0
    1.8032   -4.2083   -0.5237 C   0  0  0  0  0  0  0  0  0  0  0  0
    2.2385   -5.4226   -1.2720 C   0  0  0  0  0  0  0  0  0  0  0  0
    2.6924   -3.5602    0.3337 C   0  0  0  0  0  0  0  0  0  0  0  0
    0.5061   -3.7201   -0.6819 C   0  0  0  0  0  0  0  0  0  0  0  0
    2.2010   -5.2185   -2.7985 C   0  0  0  0  0  0  0  0  0  0  0  0
    1.4226   -6.6727   -0.8918 C   0  0  0  0  0  0  0  0  0  0  0  0
   -0.9577    1.8794   -3.0202 H   0  0  0  0  0  0  0  0  0  0  0  0
    0.2670    4.6923   -2.5130 H   0  0  0  0  0  0  0  0  0  0  0  0
   -0.7122    4.1431   -3.9389 H   0  0  0  0  0  0  0  0  0  0  0  0
   -2.6239    3.6183   -2.4024 H   0  0  0  0  0  0  0  0  0  0  0  0
   -1.6189    4.1410   -0.9782 H   0  0  0  0  0  0  0  0  0  0  0  0
   -1.4606   -0.2390   -1.1295 H   0  0  0  0  0  0  0  0  0  0  0  0
   -3.7434   -0.4624   -0.5577 H   0  0  0  0  0  0  0  0  0  0  0  0
   -2.3481    1.8807    0.9039 H   0  0  0  0  0  0  0  0  0  0  0  0
   -4.6094    1.6888   -1.3893 H   0  0  0  0  0  0  0  0  0  0  0  0
   -4.8500    2.2816    0.2657 H   0  0  0  0  0  0  0  0  0  0  0  0
   -6.9752    1.4434   -0.6385 H   0  0  0  0  0  0  0  0  0  0  0  0
    3.9498    3.7842   -1.0788 H   0  0  0  0  0  0  0  0  0  0  0  0
    2.9988    0.3061    2.3070 H   0  0  0  0  0  0  0  0  0  0  0  0
   -7.3784   -0.4096    1.0949 H   0  0  0  0  0  0  0  0  0  0  0  0
   -6.7537    1.1290    1.7312 H   0  0  0  0  0  0  0  0  0  0  0  0
   -7.1761   -0.7462   -1.1509 H   0  0  0  0  0  0  0  0  0  0  0  0
    2.9925   -1.9488    1.7052 H   0  0  0  0  0  0  0  0  0  0  0  0
   -0.9255   -2.2432   -0.1018 H   0  0  0  0  0  0  0  0  0  0  0  0
    3.2833   -5.6427   -1.0134 H   0  0  0  0  0  0  0  0  0  0  0  0
    3.7054   -3.9290    0.4708 H   0  0  0  0  0  0  0  0  0  0  0  0
   -0.2048   -4.2123   -1.3398 H   0  0  0  0  0  0  0  0  0  0  0  0
    2.7948   -4.3446   -3.0887 H   0  0  0  0  0  0  0  0  0  0  0  0
    2.6155   -6.0924   -3.3127 H   0  0  0  0  0  0  0  0  0  0  0  0
    1.1805   -5.0680   -3.1667 H   0  0  0  0  0  0  0  0  0  0  0  0
    1.8294   -7.5614   -1.3865 H   0  0  0  0  0  0  0  0  0  0  0  0
    1.4561   -6.8449    0.1897 H   0  0  0  0  0  0  0  0  0  0  0  0
    0.3712   -6.5804   -1.1845 H   0  0  0  0  0  0  0  0  0  0  0  0
  1 13  1  0  0  0  0
  1 27  1  0  0  0  0
  2 25  1  0  0  0  0
  3 26  1  0  0  0  0
  4 17  1  0  0  0  0
  4 24  1  0  0  0  0
  5 20  1  0  0  0  0
  5 51  1  0  0  0  0
  6 24  2  0  0  0  0
  7 11  2  0  0  0  0
  7 14  1  0  0  0  0
  8  9  1  0  0  0  0
  8 10  1  0  0  0  0
  8 11  1  0  0  0  0
  8 36  1  0  0  0  0
  9 10  1  0  0  0  0
  9 37  1  0  0  0  0
  9 38  1  0  0  0  0
 10 39  1  0  0  0  0
 10 40  1  0  0  0  0
 11 12  1  0  0  0  0
 12 13  2  0  0  0  0
 12 15  1  0  0  0  0
 13 16  1  0  0  0  0
 14 16  1  0  0  0  0
 14 21  2  0  0  0  0
 15 18  2  0  0  0  0
 15 41  1  0  0  0  0
 16 22  2  0  0  0  0
 17 18  1  0  0  0  0
 17 19  1  0  0  0  0
 17 42  1  0  0  0  0
 18 43  1  0  0  0  0
 19 20  1  0  0  0  0
 19 44  1  0  0  0  0
 19 45  1  0  0  0  0
 20 23  1  0  0  0  0
 20 46  1  0  0  0  0
 21 25  1  0  0  0  0
 21 47  1  0  0  0  0
 22 26  1  0  0  0  0
 22 48  1  0  0  0  0
 23 24  1  0  0  0  0
 23 49  1  0  0  0  0
 23 50  1  0  0  0  0
 25 26  2  0  0  0  0
 27 28  2  0  0  0  0
 27 29  1  0  0  0  0
 28 32  1  0  0  0  0
 28 52  1  0  0  0  0
 29 33  2  0  0  0  0
 29 53  1  0  0  0  0
 30 31  1  0  0  0  0
 30 32  2  0  0  0  0
 30 33  1  0  0  0  0
 31 34  1  0  0  0  0
 31 35  1  0  0  0  0
 31 54  1  0  0  0  0
 32 55  1  0  0  0  0
 33 56  1  0  0  0  0
 34 57  1  0  0  0  0
 34 58  1  0  0  0  0
 34 59  1  0  0  0  0
 35 60  1  0  0  0  0
 35 61  1  0  0  0  0
 35 62  1  0  0  0  0
M  END

$$$$
CHEMBL149701_negative2
     RDKit          3D

60 60  0     1  0  0  0  0  0999 V2000
   -0.8262    1.9545    0.4350 O   0  0  0  0  0  0  0  0  0  0  0  0
   -0.3259   -4.2868    1.1211 O   0  0  0  0  0  0  0  0  0  0  0  0
    2.8885   -2.7128   -1.1959 O   0  0  0  0  0  0  0  0  0  0  0  0
    0.5921    2.8157    2.0283 O   0  0  0  0  0  0  0  0  0  0  0  0
    5.4433    0.1227    0.3297 O   0  0  0  0  0  0  0  0  0  0  0  0
    4.2088   -0.3596   -1.5164 O   0  0  0  0  0  0  0  0  0  0  0  0
   -2.2986   -0.5555   -0.1442 C   0  0  2  0  0  0  0  0  0  0  0  0
   -2.7631    0.5994    0.7801 C   0  0  2  0  0  0  0  0  0  0  0  0
   -3.5206   -1.3002   -0.7597 C   0  0  2  0  0  0  0  0  0  0  0  0
   -1.3246   -1.5195    0.5401 C   0  0  0  0  0  0  0  0  0  0  0  0
   -3.6277    1.6018   -0.0124 C   0  0  0  0  0  0  0  0  0  0  0  0
   -0.7445   -2.5262   -0.4583 C   0  0  0  0  0  0  0  0  0  0  0  0
   -1.6054    1.3474    1.4470 C   0  0  0  0  0  0  0  0  0  0  0  0
   -4.5615   -0.3398   -1.2779 C   0  0  0  0  0  0  0  0  0  0  0  0
   -4.6022    0.9574   -0.9489 C   0  0  0  0  0  0  0  0  0  0  0  0
   -4.1985   -2.2919    0.1928 C   0  0  0  0  0  0  0  0  0  0  0  0
    0.3111   -3.4666    0.1387 C   0  0  1  0  0  0  0  0  0  0  0  0
    1.5170   -2.7768    0.7958 C   0  0  0  0  0  0  0  0  0  0  0  0
    2.3622   -1.9075   -0.1432 C   0  0  1  0  0  0  0  0  0  0  0  0
    0.2657    2.6748    0.8560 C   0  0  0  0  0  0  0  0  0  0  0  0
    1.0208    3.2787   -0.3326 C   0  0  0  0  0  0  0  0  0  0  0  0
    3.5373   -1.2864    0.6122 C   0  0  0  0  0  0  0  0  0  0  0  0
    0.0866    4.2150   -1.1106 C   0  0  0  0  0  0  0  0  0  0  0  0
    2.2232    4.0870    0.1809 C   0  0  0  0  0  0  0  0  0  0  0  0
    1.5298    2.1529   -1.2426 C   0  0  0  0  0  0  0  0  0  0  0  0
    4.4123   -0.4777   -0.3150 C   0  0  0  0  0  0  0  0  0  0  0  0
   -1.7560   -0.0919   -0.9831 H   0  0  0  0  0  0  0  0  0  0  0  0
   -3.3777    0.1736    1.5846 H   0  0  0  0  0  0  0  0  0  0  0  0
   -3.1696   -1.8632   -1.6340 H   0  0  0  0  0  0  0  0  0  0  0  0
   -1.7887   -2.0251    1.3932 H   0  0  0  0  0  0  0  0  0  0  0  0
   -0.4832   -0.9483    0.9385 H   0  0  0  0  0  0  0  0  0  0  0  0
   -3.0086    2.2810   -0.6103 H   0  0  0  0  0  0  0  0  0  0  0  0
   -4.1825    2.2272    0.6980 H   0  0  0  0  0  0  0  0  0  0  0  0
   -1.5489   -3.1519   -0.8595 H   0  0  0  0  0  0  0  0  0  0  0  0
   -0.3085   -1.9903   -1.3098 H   0  0  0  0  0  0  0  0  0  0  0  0
   -0.9950    0.6936    2.0772 H   0  0  0  0  0  0  0  0  0  0  0  0
   -2.0155    2.1319    2.0961 H   0  0  0  0  0  0  0  0  0  0  0  0
   -5.3121   -0.7319   -1.9594 H   0  0  0  0  0  0  0  0  0  0  0  0
   -5.3745    1.5878   -1.3802 H   0  0  0  0  0  0  0  0  0  0  0  0
   -4.5210   -1.8098    1.1216 H   0  0  0  0  0  0  0  0  0  0  0  0
   -3.5385   -3.1243    0.4535 H   0  0  0  0  0  0  0  0  0  0  0  0
   -5.0876   -2.7338   -0.2729 H   0  0  0  0  0  0  0  0  0  0  0  0
    0.6707   -4.1394   -0.6487 H   0  0  0  0  0  0  0  0  0  0  0  0
    1.1906   -2.1934    1.6653 H   0  0  0  0  0  0  0  0  0  0  0  0
    2.1509   -3.5717    1.2140 H   0  0  0  0  0  0  0  0  0  0  0  0
    1.7517   -1.1211   -0.5983 H   0  0  0  0  0  0  0  0  0  0  0  0
   -1.0487   -4.7663    0.6815 H   0  0  0  0  0  0  0  0  0  0  0  0
    4.1680   -2.0705    1.0471 H   0  0  0  0  0  0  0  0  0  0  0  0
    3.1697   -0.6290    1.4071 H   0  0  0  0  0  0  0  0  0  0  0  0
    0.6156    4.7109   -1.9320 H   0  0  0  0  0  0  0  0  0  0  0  0
   -0.7602    3.6707   -1.5438 H   0  0  0  0  0  0  0  0  0  0  0  0
   -0.3272    4.9909   -0.4563 H   0  0  0  0  0  0  0  0  0  0  0  0
    2.7848    4.5345   -0.6468 H   0  0  0  0  0  0  0  0  0  0  0  0
    2.9142    3.4534    0.7494 H   0  0  0  0  0  0  0  0  0  0  0  0
    1.9024    4.8983    0.8447 H   0  0  0  0  0  0  0  0  0  0  0  0
    2.1260    2.5487   -2.0720 H   0  0  0  0  0  0  0  0  0  0  0  0
    2.1540    1.4523   -0.6788 H   0  0  0  0  0  0  0  0  0  0  0  0
    0.7031    1.5760   -1.6725 H   0  0  0  0  0  0  0  0  0  0  0  0
    3.4182   -3.4230   -0.7951 H   0  0  0  0  0  0  0  0  0  0  0  0
    5.9987    0.6522   -0.2814 H   0  0  0  0  0  0  0  0  0  0  0  0
  1 13  1  0  0  0  0
  1 20  1  0  0  0  0
  2 17  1  0  0  0  0
  2 47  1  0  0  0  0
  3 19  1  0  0  0  0
  3 59  1  0  0  0  0
  4 20  2  0  0  0  0
  5 26  1  0  0  0  0
  5 60  1  0  0  0  0
  6 26  2  0  0  0  0
  7  8  1  0  0  0  0
  7  9  1  0  0  0  0
  7 10  1  0  0  0  0
  7 27  1  0  0  0  0
  8 11  1  0  0  0  0
  8 13  1  0  0  0  0
  8 28  1  0  0  0  0
  9 14  1  0  0  0  0
  9 16  1  0  0  0  0
  9 29  1  0  0  0  0
 10 12  1  0  0  0  0
 10 30  1  0  0  0  0
 10 31  1  0  0  0  0
 11 15  1  0  0  0  0
 11 32  1  0  0  0  0
 11 33  1  0  0  0  0
 12 17  1  0  0  0  0
 12 34  1  0  0  0  0
 12 35  1  0  0  0  0
 13 36  1  0  0  0  0
 13 37  1  0  0  0  0
 14 15  2  0  0  0  0
 14 38  1  0  0  0  0
 15 39  1  0  0  0  0
 16 40  1  0  0  0  0
 16 41  1  0  0  0  0
 16 42  1  0  0  0  0
 17 18  1  0  0  0  0
 17 43  1  0  0  0  0
 18 19  1  0  0  0  0
 18 44  1  0  0  0  0
 18 45  1  0  0  0  0
 19 22  1  0  0  0  0
 19 46  1  0  0  0  0
 20 21  1  0  0  0  0
 21 23  1  0  0  0  0
 21 24  1  0  0  0  0
 21 25  1  0  0  0  0
 22 26  1  0  0  0  0
 22 48  1  0  0  0  0
 22 49  1  0  0  0  0
 23 50  1  0  0  0  0
 23 51  1  0  0  0  0
 23 52  1  0  0  0  0
 24 53  1  0  0  0  0
 24 54  1  0  0  0  0
 24 55  1  0  0  0  0
 25 56  1  0  0  0  0
 25 57  1  0  0  0  0
 25 58  1  0  0  0  0
M  END

$$$$
CHEMBL348798_positive2
     RDKit          3D

 60 61  0     1  0  0  0  0  0999 V2000
   -4.2063   -4.0942   -0.1290 F   0  0  0  0  0  0  0  0  0  0  0  0
   -0.2099    2.8039   -2.3386 O   0  0  0  0  0  0  0  0  0  0  0  0
   -3.6003    3.6994    0.0576 O   0  0  0  0  0  0  0  0  0  0  0  0
   -2.8706    2.4364    2.5167 O   0  5  0  0  0  0  0  0  0  0  0  0
   -0.7742    1.5793    2.2268 O   0  0  0  0  0  0  0  0  0  0  0  0
    2.6337   -0.7399    0.7839 N   0  0  0  0  0  0  0  0  0  0  0  0
    2.4915   -0.1759   -0.4571 C   0  0  0  0  0  0  0  0  0  0  0  0
    1.2811   -0.5864   -0.9709 C   0  0  0  0  0  0  0  0  0  0  0  0
    0.7120   -0.2078   -2.3150 C   0  0  0  0  0  0  0  0  0  0  0  0
    3.5260    0.7048   -1.0402 C   0  0  0  0  0  0  0  0  0  0  0  0
    0.6745   -1.4266   -0.0049 C   0  0  0  0  0  0  0  0  0  0  0  0
   -0.6804    0.4347   -2.2379 C   0  0  0  0  0  0  0  0  0  0  0  0
    3.7642   -0.5670    1.6694 C   0  0  0  0  0  0  0  0  0  0  0  0
    1.5325   -1.5040    1.0699 C   0  0  0  0  0  0  0  0  0  0  0  0
   -0.7114    1.7767   -1.4886 C   0  0  2  0  0  0  0  0  0  0  0  0
   -2.1411    2.1149   -1.0296 C   0  0  0  0  0  0  0  0  0  0  0  0
    4.1380    0.1357   -2.3403 C   0  0  0  0  0  0  0  0  0  0  0  0
    3.0166    2.1404   -1.3010 C   0  0  0  0  0  0  0  0  0  0  0  0
   -0.5839   -2.1144   -0.0369 C   0  0  0  0  0  0  0  0  0  0  0  0
    4.0165   -1.8199    2.5117 C   0  0  0  0  0  0  0  0  0  0  0  0
    3.5973    0.6653    2.5618 C   0  0  0  0  0  0  0  0  0  0  0  0
   -2.2405    3.4683   -0.3055 C   0  0  2  0  0  0  0  0  0  0  0  0
   -1.3849    3.4684    0.9634 C   0  0  0  0  0  0  0  0  0  0  0  0
   -1.5526   -1.8418    0.9292 C   0  0  0  0  0  0  0  0  0  0  0  0
   -0.8391   -3.0557   -1.0342 C   0  0  0  0  0  0  0  0  0  0  0  0
   -2.7763   -2.5105    0.8981 C   0  0  0  0  0  0  0  0  0  0  0  0
   -2.0627   -3.7245   -1.0653 C   0  0  0  0  0  0  0  0  0  0  0  0
   -3.0313   -3.4520   -0.0992 C   0  0  0  0  0  0  0  0  0  0  0  0
   -1.7182    2.3923    2.0057 C   0  0  0  0  0  0  0  0  0  0  0  0
    1.3649    0.4653   -2.8694 H   0  0  0  0  0  0  0  0  0  0  0  0
    0.6449   -1.1185   -2.9236 H   0  0  0  0  0  0  0  0  0  0  0  0
    4.3690    0.8425   -0.3599 H   0  0  0  0  0  0  0  0  0  0  0  0
   -1.3886   -0.2600   -1.7790 H   0  0  0  0  0  0  0  0  0  0  0  0
   -1.0304    0.5895   -3.2670 H   0  0  0  0  0  0  0  0  0  0  0  0
    4.6646   -0.4575    1.0586 H   0  0  0  0  0  0  0  0  0  0  0  0
    1.4276   -2.0322    2.0081 H   0  0  0  0  0  0  0  0  0  0  0  0
   -0.0557    1.7223   -0.6173 H   0  0  0  0  0  0  0  0  0  0  0  0
   -2.5428    1.3132   -0.3975 H   0  0  0  0  0  0  0  0  0  0  0  0
   -2.8037    2.1595   -1.9045 H   0  0  0  0  0  0  0  0  0  0  0  0
    3.4205    0.0689   -3.1611 H   0  0  0  0  0  0  0  0  0  0  0  0
    4.5385   -0.8694   -2.1660 H   0  0  0  0  0  0  0  0  0  0  0  0
    4.9651    0.7696   -2.6789 H   0  0  0  0  0  0  0  0  0  0  0  0
    2.3421    2.1997   -2.1564 H   0  0  0  0  0  0  0  0  0  0  0  0
    3.8619    2.8036   -1.5179 H   0  0  0  0  0  0  0  0  0  0  0  0
    2.4972    2.5393   -0.4229 H   0  0  0  0  0  0  0  0  0  0  0  0
    4.9742   -1.7316    3.0376 H   0  0  0  0  0  0  0  0  0  0  0  0
    4.0655   -2.7204    1.8893 H   0  0  0  0  0  0  0  0  0  0  0  0
    3.2479   -1.9696    3.2776 H   0  0  0  0  0  0  0  0  0  0  0  0
    4.4737    0.8011    3.2040 H   0  0  0  0  0  0  0  0  0  0  0  0
    3.4748    1.5742    1.9635 H   0  0  0  0  0  0  0  0  0  0  0  0
    2.7152    0.5732    3.2055 H   0  0  0  0  0  0  0  0  0  0  0  0
   -1.9319    4.2825   -0.9700 H   0  0  0  0  0  0  0  0  0  0  0  0
   -1.5301    4.4274    1.4800 H   0  0  0  0  0  0  0  0  0  0  0  0
   -0.3187    3.4301    0.7128 H   0  0  0  0  0  0  0  0  0  0  0  0
   -0.8129    2.8854   -3.0970 H   0  0  0  0  0  0  0  0  0  0  0  0
   -1.3756   -1.1118    1.7146 H   0  0  0  0  0  0  0  0  0  0  0  0
   -0.0949   -3.2879   -1.7921 H   0  0  0  0  0  0  0  0  0  0  0  0
   -3.6432    4.5649    0.4989 H   0  0  0  0  0  0  0  0  0  0  0  0
   -3.5308   -2.2982    1.6497 H   0  0  0  0  0  0  0  0  0  0  0  0
   -2.2613   -4.4585   -1.8406 H   0  0  0  0  0  0  0  0  0  0  0  0
  1 28  1  0  0  0  0
  2 15  1  0  0  0  0
  2 55  1  0  0  0  0
  3 22  1  0  0  0  0
  3 58  1  0  0  0  0
  4 29  1  0  0  0  0
  5 29  2  0  0  0  0
  6  7  1  0  0  0  0
  6 13  1  0  0  0  0
  6 14  1  0  0  0  0
  7  8  2  0  0  0  0
  7 10  1  0  0  0  0
  8  9  1  0  0  0  0
  8 11  1  0  0  0  0
  9 12  1  0  0  0  0
  9 30  1  0  0  0  0
  9 31  1  0  0  0  0
 10 17  1  0  0  0  0
 10 18  1  0  0  0  0
 10 32  1  0  0  0  0
 11 14  2  0  0  0  0
 11 19  1  0  0  0  0
 12 15  1  0  0  0  0
 12 33  1  0  0  0  0
 12 34  1  0  0  0  0
 13 20  1  0  0  0  0
 13 21  1  0  0  0  0
 13 35  1  0  0  0  0
 14 36  1  0  0  0  0
 15 16  1  0  0  0  0
 15 37  1  0  0  0  0
 16 22  1  0  0  0  0
 16 38  1  0  0  0  0
 16 39  1  0  0  0  0
 17 40  1  0  0  0  0
 17 41  1  0  0  0  0
 17 42  1  0  0  0  0
 18 43  1  0  0  0  0
 18 44  1  0  0  0  0
 18 45  1  0  0  0  0
 19 24  2  0  0  0  0
 19 25  1  0  0  0  0
 20 46  1  0  0  0  0
 20 47  1  0  0  0  0
 20 48  1  0  0  0  0
 21 49  1  0  0  0  0
 21 50  1  0  0  0  0
 21 51  1  0  0  0  0
 22 23  1  0  0  0  0
 22 52  1  0  0  0  0
 23 29  1  0  0  0  0
 23 53  1  0  0  0  0
 23 54  1  0  0  0  0
 24 26  1  0  0  0  0
 24 56  1  0  0  0  0
 25 27  2  0  0  0  0
 25 57  1  0  0  0  0
 26 28  2  0  0  0  0
 26 59  1  0  0  0  0
 27 28  1  0  0  0  0
 27 60  1  0  0  0  0
M  END

$$$$
CHEMBL1794644_positive1
     RDKit          3D

102104  0  0  1  0  0  0  0  0999 V2000
   -4.7967   11.1777    5.0971 C   0  0  0  0  0  0  0  0  0  0  0  0
   -5.1105    9.7656    5.6899 C   0  0  0  0  0  0  0  0  0  0  0  0
   -4.7927    8.7392    4.5853 C   0  0  0  0  0  0  0  0  0  0  0  0
   -4.1245    9.6417    6.9865 C   0  0  0  0  0  0  0  0  0  0  0  0
   -3.4485    8.4364    7.4532 O   0  0  0  0  0  0  0  0  0  0  0  0
   -4.0308    7.6278    8.7400 P   0  0  3  0  0  0  0  0  0  0  0  0
   -5.4558    8.0201    8.9952 O   0  0  0  0  0  0  0  0  0  0  0  0
   -3.9498    6.1813    8.0003 O   0  0  0  0  0  0  0  0  0  0  0  0
   -2.9412    7.3107   10.0741 O   0  0  0  0  0  0  0  0  0  0  0  0
   -3.9876    6.7183   11.3178 P   0  0  3  0  0  0  0  0  0  0  0  0
   -4.4596    8.1508   11.5208 O   0  0  0  0  0  0  0  0  0  0  0  0
   -4.7733    5.7526   10.2833 O   0  0  0  0  0  0  0  0  0  0  0  0
   -5.0341    6.1259   12.5616 O   0  0  0  0  0  0  0  0  0  0  0  0
   -6.3347    6.5419   12.2218 C   0  0  0  0  0  0  0  0  0  0  0  0
   -7.2684    6.0074   13.2119 C   0  0  1  0  0  0  0  0  0  0  0  0
   -8.5501    6.2095   12.4996 O   0  0  0  0  0  0  0  0  0  0  0  0
   -9.4224    5.1116   12.7626 C   0  0  1  0  0  0  0  0  0  0  0  0
   -9.7907    4.3765   11.5393 N   0  0  0  0  0  0  0  0  0  0  0  0
   -9.0669    4.1528   10.3993 C   0  0  0  0  0  0  0  0  0  0  0  0
   -9.7964    3.5951    9.4465 N   0  0  0  0  0  0  0  0  0  0  0  0
  -11.0390    3.4166   10.0007 C   0  0  0  0  0  0  0  0  0  0  0  0
  -12.2726    2.9652    9.4741 C   0  0  0  0  0  0  0  0  0  0  0  0
  -12.4643    2.6799    8.1273 N   0  0  0  0  0  0  0  0  0  0  0  0
  -13.3294    2.8758   10.3091 N   0  0  0  0  0  0  0  0  0  0  0  0
  -13.1555    3.2187   11.6089 C   0  0  0  0  0  0  0  0  0  0  0  0
  -12.0540    3.7308   12.1995 N   0  0  0  0  0  0  0  0  0  0  0  0
  -11.0351    3.8178   11.3300 C   0  0  0  0  0  0  0  0  0  0  0  0
   -8.6661    4.2999   13.8090 C   0  0  2  0  0  0  0  0  0  0  0  0
   -8.8959    4.8762   15.1020 O   0  0  0  0  0  0  0  0  0  0  0  0
   -7.1024    4.5090   13.3987 C   0  0  2  0  0  0  0  0  0  0  0  0
   -5.9032    3.6004   14.1357 O   0  0  0  0  0  0  0  0  0  0  0  0
   -6.9958    2.3215   13.7312 P   0  0  0  0  0  0  0  0  0  0  0  0
   -5.8777    1.2860   13.7676 O   0  0  0  0  0  0  0  0  0  0  0  0
   -7.5461    2.3092   15.2702 O   0  0  0  0  0  0  0  0  0  0  0  0
   -8.0883    1.0426   13.3267 O   0  0  0  0  0  0  0  0  0  0  0  0
   -6.6707    9.7673    5.9979 C   0  0  1  0  0  0  0  0  0  0  0  0
   -7.0085   10.7445    6.9901 O   0  0  0  0  0  0  0  0  0  0  0  0
   -7.6304    9.9712    4.7239 C   0  0  0  0  0  0  0  0  0  0  0  0
   -7.5984    9.2201    3.7643 O   0  0  0  0  0  0  0  0  0  0  0  0
   -8.5043   11.0625    4.7788 N   0  0  0  0  0  0  0  0  0  0  0  0
   -9.4388   11.2849    3.6581 C   0  0  0  0  0  0  0  0  0  0  0  0
  -10.3256   12.5361    3.7840 C   0  0  0  0  0  0  0  0  0  0  0  0
  -11.2005   12.7052    2.5445 C   0  0  0  0  0  0  0  0  0  0  0  0
  -10.8137   13.2991    1.5496 O   0  0  0  0  0  0  0  0  0  0  0  0
  -12.4503   12.1204    2.6352 N   0  0  0  0  0  0  0  0  0  0  0  0
  -13.3910   12.1079    1.5342 C   0  0  0  0  0  0  0  0  0  0  0  0
  -13.1987   10.9235    0.5705 C   0  0  0  0  0  0  0  0  0  0  0  0
  -13.4240    9.3358    1.4494 S   0  0  0  0  0  0  0  0  0  0  0  0
  -13.2769    8.2439    0.0792 C   0  0  0  0  0  0  0  0  0  0  0  0
  -12.7280    8.5823   -0.9651 O   0  0  0  0  0  0  0  0  0  0  0  0
  -13.9313    6.8895    0.2427 C   0  0  0  0  0  0  0  0  0  0  0  0
  -14.9503    6.6334   -0.8885 C   0  0  1  0  0  0  0  0  0  0  0  0
  -16.0097    7.7384   -0.9993 C   0  0  0  0  0  0  0  0  0  0  0  0
  -14.2483    6.5890   -2.1490 O   0  0  0  0  0  0  0  0  0  0  0  0
  -15.6031    5.2417   -0.7778 C   0  0  0  0  0  0  0  0  0  0  0  0
  -16.4388    5.0032    0.4552 C   0  0  0  0  0  0  0  0  0  0  0  0
  -16.5823    5.7849    1.3803 O   0  0  0  0  0  0  0  0  0  0  0  0
  -17.0296    3.7853    0.4472 O   0  0  0  0  0  0  0  0  0  0  0  0
   -3.7613   11.2340    4.7450 H   0  0  0  0  0  0  0  0  0  0  0  0
   -4.9257   11.9596    5.8535 H   0  0  0  0  0  0  0  0  0  0  0  0
   -5.4386   11.4286    4.2448 H   0  0  0  0  0  0  0  0  0  0  0  0
   -3.7212    8.6862    4.3780 H   0  0  0  0  0  0  0  0  0  0  0  0
   -5.2560    9.0260    3.6302 H   0  0  0  0  0  0  0  0  0  0  0  0
   -5.1599    7.7398    4.8348 H   0  0  0  0  0  0  0  0  0  0  0  0
   -4.5804   10.1514    7.8406 H   0  0  0  0  0  0  0  0  0  0  0  0
   -3.2532   10.2507    6.7187 H   0  0  0  0  0  0  0  0  0  0  0  0
   -3.3758    6.2610    7.2190 H   0  0  0  0  0  0  0  0  0  0  0  0
   -4.2770    5.0038    9.9046 H   0  0  0  0  0  0  0  0  0  0  0  0
   -6.6260    6.1442   11.2402 H   0  0  0  0  0  0  0  0  0  0  0  0
   -6.4676    7.6248   12.1484 H   0  0  0  0  0  0  0  0  0  0  0  0
   -7.2605    6.5807   14.1423 H   0  0  0  0  0  0  0  0  0  0  0  0
  -10.3549    5.5419   13.1473 H   0  0  0  0  0  0  0  0  0  0  0  0
   -8.0267    4.4201   10.2757 H   0  0  0  0  0  0  0  0  0  0  0  0
  -11.7378    3.0690    7.5394 H   0  0  0  0  0  0  0  0  0  0  0  0
  -13.4182    2.8922    7.8541 H   0  0  0  0  0  0  0  0  0  0  0  0
  -14.0145    3.0671   12.2502 H   0  0  0  0  0  0  0  0  0  0  0  0
   -9.0979    3.2993   13.8213 H   0  0  0  0  0  0  0  0  0  0  0  0
   -8.3222    4.4168   15.7395 H   0  0  0  0  0  0  0  0  0  0  0  0
   -6.9823    4.1314   12.3651 H   0  0  0  0  0  0  0  0  0  0  0  0
   -6.9391    1.7657   15.8070 H   0  0  0  0  0  0  0  0  0  0  0  0
   -7.7267    0.2473   13.7651 H   0  0  0  0  0  0  0  0  0  0  0  0
   -6.9617    8.7906    6.4131 H   0  0  0  0  0  0  0  0  0  0  0  0
   -6.8486   11.6195    6.6008 H   0  0  0  0  0  0  0  0  0  0  0  0
   -8.7802   11.3599    5.7042 H   0  0  0  0  0  0  0  0  0  0  0  0
  -10.0673   10.4027    3.5521 H   0  0  0  0  0  0  0  0  0  0  0  0
   -8.8420   11.3682    2.7380 H   0  0  0  0  0  0  0  0  0  0  0  0
   -9.7278   13.4453    3.8939 H   0  0  0  0  0  0  0  0  0  0  0  0
  -10.9627   12.4706    4.6758 H   0  0  0  0  0  0  0  0  0  0  0  0
  -12.6506   11.5025    3.4124 H   0  0  0  0  0  0  0  0  0  0  0  0
  -13.2934   13.0437    0.9618 H   0  0  0  0  0  0  0  0  0  0  0  0
  -14.4004   12.0914    1.9558 H   0  0  0  0  0  0  0  0  0  0  0  0
  -12.1982   10.9530    0.1284 H   0  0  0  0  0  0  0  0  0  0  0  0
  -13.9375   10.9882   -0.2368 H   0  0  0  0  0  0  0  0  0  0  0  0
  -14.3975    6.8168    1.2285 H   0  0  0  0  0  0  0  0  0  0  0  0
  -13.1260    6.1454    0.2064 H   0  0  0  0  0  0  0  0  0  0  0  0
  -15.5559    8.7090   -1.2273 H   0  0  0  0  0  0  0  0  0  0  0  0
  -16.5942    7.8480   -0.0817 H   0  0  0  0  0  0  0  0  0  0  0  0
  -16.6980    7.5330   -1.8270 H   0  0  0  0  0  0  0  0  0  0  0  0
  -13.6809    7.3865   -2.2199 H   0  0  0  0  0  0  0  0  0  0  0  0
  -14.8225    4.4708   -0.8130 H   0  0  0  0  0  0  0  0  0  0  0  0
  -16.2457    5.0801   -1.6539 H   0  0  0  0  0  0  0  0  0  0  0  0
  -16.8345    3.2537   -0.3489 H   0  0  0  0  0  0  0  0  0  0  0  0
  1  2  1  0  0  0  0
  1 59  1  0  0  0  0
  1 60  1  0  0  0  0
  1 61  1  0  0  0  0
  2  3  1  0  0  0  0
  2  4  1  0  0  0  0
  2 36  1  0  0  0  0
  3 62  1  0  0  0  0
  3 63  1  0  0  0  0
  3 64  1  0  0  0  0
  4  5  1  0  0  0  0
  4 65  1  0  0  0  0
  4 66  1  0  0  0  0
  5  6  1  0  0  0  0
  6  7  2  0  0  0  0
  6  8  1  0  0  0  0
  6  9  1  0  0  0  0
  8 67  1  0  0  0  0
  9 10  1  0  0  0  0
 10 11  2  0  0  0  0
 10 12  1  0  0  0  0
 10 13  1  0  0  0  0
 12 68  1  0  0  0  0
 13 14  1  0  0  0  0
 14 69  1  0  0  0  0
 14 70  1  0  0  0  0
 15 16  1  0  0  0  0
 15 30  1  0  0  0  0
 15 14  1  0  0  0  0
 15 71  1  1  0  0  0
 16 17  1  0  0  0  0
 17 28  1  0  0  0  0
 17 18  1  0  0  0  0
 17 72  1  1  0  0  0
 18 19  1  0  0  0  0
 18 27  1  0  0  0  0
 19 20  2  0  0  0  0
 19 73  1  0  0  0  0
 20 21  1  0  0  0  0
 21 22  1  0  0  0  0
 21 27  2  0  0  0  0
 22 23  1  0  0  0  0
 22 24  2  0  0  0  0
 23 74  1  0  0  0  0
 23 75  1  0  0  0  0
 24 25  1  0  0  0  0
 25 26  2  0  0  0  0
 25 76  1  0  0  0  0
 26 27  1  0  0  0  0
 28 29  1  0  0  0  0
 28 30  1  0  0  0  0
 28 77  1  6  0  0  0
 29 78  1  0  0  0  0
 30 31  1  0  0  0  0
 30 79  1  6  0  0  0
 31 32  1  0  0  0  0
 32 33  2  0  0  0  0
 32 34  1  0  0  0  0
 32 35  1  0  0  0  0
 34 80  1  0  0  0  0
 35 81  1  0  0  0  0
 36 37  1  0  0  0  0
 36 38  1  0  0  0  0
 36 82  1  1  0  0  0
 37 83  1  0  0  0  0
 38 39  2  0  0  0  0
 38 40  1  0  0  0  0
 40 41  1  0  0  0  0
 40 84  1  0  0  0  0
 41 42  1  0  0  0  0
 41 85  1  0  0  0  0
 41 86  1  0  0  0  0
 42 43  1  0  0  0  0
 42 87  1  0  0  0  0
 42 88  1  0  0  0  0
 43 44  2  0  0  0  0
 43 45  1  0  0  0  0
 45 46  1  0  0  0  0
 45 89  1  0  0  0  0
 46 47  1  0  0  0  0
 46 90  1  0  0  0  0
 46 91  1  0  0  0  0
 47 48  1  0  0  0  0
 47 92  1  0  0  0  0
 47 93  1  0  0  0  0
 48 49  1  0  0  0  0
 49 50  2  0  0  0  0
 49 51  1  0  0  0  0
 51 52  1  0  0  0  0
 51 94  1  0  0  0  0
 51 95  1  0  0  0  0
 52 53  1  0  0  0  0
 52 54  1  6  0  0  0
 52 55  1  0  0  0  0
 53 96  1  0  0  0  0
 53 97  1  0  0  0  0
 53 98  1  0  0  0  0
 54 99  1  0  0  0  0
 55 56  1  0  0  0  0
 55100  1  0  0  0  0
 55101  1  0  0  0  0
 56 57  2  0  0  0  0
 56 58  1  0  0  0  0
 58102  1  0  0  0  0
M  END
> <chembl_id>
CHEMBL1794644

> <chembl_pref_name>
3-HYDROXY-3-METHYLGLUTARYL-COENZYME A

$$$$
CHEMBL1949897 PubChem-440615
     RDKit          3D

 59 61  0  0  0  0  0  0  0  0999 V2000
   -6.0009  -11.0962  -13.8244 S   0  0  0  0  0  0  0  0  0  0  0  0
   -4.8713  -10.1539  -12.7514 C   0  0  0  0  0  0  0  0  0  0  0  0
   -3.5318  -10.8645  -12.6436 C   0  0  0  0  0  0  0  0  0  0  0  0
   -1.4679  -10.1008  -13.8720 C   0  0  0  0  0  0  0  0  0  0  0  0
   -0.8030   -9.8163  -15.1768 C   0  0  0  0  0  0  0  0  0  0  0  0
   -0.5124   -8.3297  -15.3553 C   0  0  0  0  0  0  0  0  0  0  0  0
   -2.8479   -7.6347  -16.1018 C   0  0  0  0  0  0  0  0  0  0  0  0
   -4.0605   -6.7803  -15.8711 C   0  0  2  0  0  0  0  0  0  0  0  0
   -4.0896   -5.5015  -16.7344 C   0  0  0  0  0  0  0  0  0  0  0  0
   -4.2236   -5.8723  -18.2098 C   0  0  0  0  0  0  0  0  0  0  0  0
   -6.9328   -2.8288  -19.5745 C   0  0  0  0  0  0  0  0  0  0  0  0
   -6.6982   -1.9441  -18.3653 C   0  0  2  0  0  0  0  0  0  0  0  0
   -7.5509   -0.7075  -18.4572 C   0  0  2  0  0  0  0  0  0  0  0  0
   -6.7358    0.3164  -17.7176 C   0  0  2  0  0  0  0  0  0  0  0  0
   -5.3238   -0.2173  -17.8538 C   0  0  2  0  0  0  0  0  0  0  0  0
   -4.7813    0.8047  -20.1042 C   0  0  0  0  0  0  0  0  0  0  0  0
   -3.0272    1.9135  -19.6431 C   0  0  0  0  0  0  0  0  0  0  0  0
   -3.4512    1.3084  -18.5148 C   0  0  0  0  0  0  0  0  0  0  0  0
   -1.6741    2.1996  -17.2946 C   0  0  0  0  0  0  0  0  0  0  0  0
   -1.8837    2.7000  -19.6176 C   0  0  0  0  0  0  0  0  0  0  0  0
   -2.8184   -4.6849  -16.5529 C   0  0  0  0  0  0  0  0  0  0  0  0
   -5.2691   -4.6224  -16.3341 C   0  0  0  0  0  0  0  0  0  0  0  0
   -5.9357   -9.8698  -15.1282 C   0  0  0  0  0  0  0  0  0  0  0  0
   -6.9068   -8.7399  -15.1347 C   0  0  0  0  0  0  0  0  0  0  0  0
   -7.7480   -8.7776  -16.3954 C   0  0  0  0  0  0  0  0  0  0  0  0
   -8.9191   -7.8258  -16.2668 C   0  0  0  0  0  0  0  0  0  0  0  0
  -10.0082   -8.4560  -15.4119 C   0  0  0  0  0  0  0  0  0  0  0  0
  -11.1384   -7.4750  -15.2081 C   0  0  0  0  0  0  0  0  0  0  0  0
  -12.2610   -8.1167  -14.4055 C   0  0  0  0  0  0  0  0  0  0  0  0
  -12.0320   -7.9605  -12.9072 C   0  0  0  0  0  0  0  0  0  0  0  0
  -10.9787   -8.9298  -12.3907 C   0  0  0  0  0  0  0  0  0  0  0  0
  -11.5294  -10.3435  -12.3523 C   0  0  0  0  0  0  0  0  0  0  0  0
   -2.7745  -10.6750  -13.8684 N   0  0  0  0  0  0  0  0  0  0  0  0
   -1.7242   -7.5277  -15.2248 N   0  0  0  0  0  0  0  0  0  0  0  0
   -4.5558    0.6049  -18.7794 N   0  0  0  0  0  0  0  0  0  0  0  0
   -3.8457    1.6184  -20.6713 N   0  0  0  0  0  0  0  0  0  0  0  0
   -2.8019    1.4259  -17.3302 N   0  0  0  0  0  0  0  0  0  0  0  0
   -1.2238    2.8272  -18.4280 N   0  0  0  0  0  0  0  0  0  0  0  0
   -1.4049    3.3523  -20.7869 N   0  0  0  0  0  0  0  0  0  0  0  0
   -0.8774   -9.8389  -12.7888 O   0  0  0  0  0  0  0  0  0  0  0  0
   -2.8232   -8.4246  -17.0808 O   0  0  0  0  0  0  0  0  0  0  0  0
   -5.4683   -6.4673  -18.4599 O   0  0  0  0  0  0  0  0  0  0  0  0
   -6.7564   -7.5355  -20.4727 O   0  0  0  0  0  0  0  0  0  0  0  0
   -4.8502   -5.8332  -21.1332 O   0  0  0  0  0  0  0  0  0  0  0  0
   -5.4293   -3.4352  -21.9783 O   0  0  0  0  0  0  0  0  0  0  0  0
   -6.1115   -3.9554  -19.4959 O   0  0  0  0  0  0  0  0  0  0  0  0
   -5.3492   -1.5513  -18.3106 O   0  0  0  0  0  0  0  0  0  0  0  0
   -7.0751    0.3463  -16.3617 O   0  0  0  0  0  0  0  0  0  0  0  0
   -8.8001   -0.9183  -17.8607 O   0  0  0  0  0  0  0  0  0  0  0  0
  -11.3255   -0.5226  -18.4181 O   0  0  0  0  0  0  0  0  0  0  0  0
   -9.8653   -1.4848  -20.3589 O   0  0  0  0  0  0  0  0  0  0  0  0
   -9.6449    1.1433  -19.5254 O   0  0  0  0  0  0  0  0  0  0  0  0
   -7.4680   -5.0401  -21.6596 O   0  0  0  0  0  0  0  0  0  0  0  0
   -4.3117   -8.3342  -20.1114 O   0  0  0  0  0  0  0  0  0  0  0  0
   -4.1993   -6.4879  -14.5115 O   0  0  0  0  0  0  0  0  0  0  0  0
   -5.0909   -9.9576  -16.0020 O   0  0  0  0  0  0  0  0  0  0  0  0
   -5.3924   -7.0368  -20.0558 P   0  0  1  0  0  0  0  0  0  0  0  0
   -5.9564   -4.5399  -21.0821 P   0  0  2  0  0  0  0  0  0  0  0  0
   -9.9431   -0.4463  -19.0241 P   0  0  0  0  0  0  0  0  0  0  0  0
  2  1  1  0
  2  3  1  0
  3 33  1  0
  5  4  1  0
  5  6  1  0
  6 34  1  0
  8  7  1  0
  8  9  1  0
  8 55  1  1
  9 10  1  0
  9 21  1  0
  9 22  1  0
 10 42  1  0
 11 46  1  0
 12 11  1  6
 12 13  1  0
 12 47  1  0
 13 14  1  0
 13 49  1  1
 14 15  1  0
 14 48  1  1
 15 47  1  0
 15 35  1  6
 17 36  1  0
 18 37  2  0
 18 35  1  0
 19 38  2  0
 20 39  1  0
 20 17  2  0
 23  1  1  0
 24 23  1  0
 24 25  1  0
 25 26  1  0
 26 27  1  0
 27 28  1  0
 28 29  1  0
 29 30  1  0
 30 31  1  0
 31 32  1  0
 33  4  1  0
 34  7  1  0
 35 16  1  0
 57 42  1  0
 57 44  1  0
 57 54  1  1
 58 44  1  0
 58 46  1  0
 58 53  1  6
 59 49  1  0
 59 51  1  0
 59 52  1  0
  4 40  2  0
  7 41  2  0
 16 36  2  0
 17 18  1  0
 19 37  1  0
 20 38  1  0
 23 56  2  0
 57 43  2  0
 58 45  2  0
 59 50  2  0
M  END
>  <rmsd>  (1) 
0.687954366

$$$$
CHEMBL261903 PubChem-44413878
     RDKit          3D

 93104  0  0  0  0  0  0  0  0999 V2000
   -6.9979  -17.7677  -19.2728 N   0  0  0  0  0  0  0  0  0  0  0  0
   -5.4961  -16.1018  -18.4958 N   0  0  0  0  0  0  0  0  0  0  0  0
   -7.2437  -18.2725  -21.6273 N   0  0  0  0  0  0  0  0  0  0  0  0
   -5.1857  -16.1317  -21.9875 N   0  0  0  0  0  0  0  0  0  0  0  0
   -4.2622  -14.9968  -20.2627 N   0  0  0  0  0  0  0  0  0  0  0  0
   -3.9666   -6.6375  -18.1808 N   0  0  0  0  0  0  0  0  0  0  0  0
   -1.7589   -7.6010  -18.0309 N   0  0  0  0  0  0  0  0  0  0  0  0
   -0.5144   -6.8819  -16.1381 N   0  0  0  0  0  0  0  0  0  0  0  0
   -3.8506   -5.3936  -16.2866 N   0  0  0  0  0  0  0  0  0  0  0  0
   -1.4273   -5.3255  -14.5201 N   0  0  0  0  0  0  0  0  0  0  0  0
   -3.4284   -0.4181  -17.9363 N   0  0  0  0  0  0  0  0  0  0  0  0
   -3.7415    0.2742  -20.2349 N   0  0  0  0  0  0  0  0  0  0  0  0
   -2.3061    2.0508  -20.9058 N   0  0  0  0  0  0  0  0  0  0  0  0
   -1.7816    1.0529  -17.4279 N   0  0  0  0  0  0  0  0  0  0  0  0
   -0.7066    3.0506  -19.3916 N   0  0  0  0  0  0  0  0  0  0  0  0
   -5.8630    6.6107  -20.3555 N   0  0  0  0  0  0  0  0  0  0  0  0
   -6.6531    6.0976  -22.5818 N   0  0  0  0  0  0  0  0  0  0  0  0
   -7.7156    7.9300  -23.6701 N   0  0  0  0  0  0  0  0  0  0  0  0
   -6.5354    8.7715  -20.3215 N   0  0  0  0  0  0  0  0  0  0  0  0
   -7.9593   10.0927  -22.5989 N   0  0  0  0  0  0  0  0  0  0  0  0
   -6.4376  -17.0570  -18.2430 C   0  0  0  0  0  0  0  0  0  0  0  0
   -5.1433  -15.8858  -19.7879 C   0  0  0  0  0  0  0  0  0  0  0  0
   -5.6886  -16.5642  -20.8162 C   0  0  0  0  0  0  0  0  0  0  0  0
   -6.6417  -17.5367  -20.5702 C   0  0  0  0  0  0  0  0  0  0  0  0
   -4.3096  -15.1595  -21.6093 C   0  0  0  0  0  0  0  0  0  0  0  0
   -3.4621  -14.0127  -19.5362 C   0  0  1  0  0  0  0  0  0  0  0  0
   -4.2471  -12.7680  -19.1540 C   0  0  2  0  0  0  0  0  0  0  0  0
   -6.5119   -9.6879  -20.4448 C   0  0  0  0  0  0  0  0  0  0  0  0
   -6.1904   -8.7633  -19.2744 C   0  0  2  0  0  0  0  0  0  0  0  0
   -6.8102   -7.4093  -19.5350 C   0  0  2  0  0  0  0  0  0  0  0  0
   -5.6584   -6.5659  -19.9929 C   0  0  1  0  0  0  0  0  0  0  0  0
   -4.4587   -7.2790  -19.4017 C   0  0  2  0  0  0  0  0  0  0  0  0
   -2.7760   -6.8157  -17.6028 C   0  0  0  0  0  0  0  0  0  0  0  0
   -0.6178   -7.6324  -17.2813 C   0  0  0  0  0  0  0  0  0  0  0  0
   -1.5459   -6.0964  -15.7104 C   0  0  0  0  0  0  0  0  0  0  0  0
   -2.7074   -6.0781  -16.4728 C   0  0  0  0  0  0  0  0  0  0  0  0
   -4.6082   -5.7649  -17.3586 C   0  0  0  0  0  0  0  0  0  0  0  0
   -5.7254   -3.0825  -20.5545 C   0  0  0  0  0  0  0  0  0  0  0  0
   -5.3408   -3.1190  -19.0872 C   0  0  2  0  0  0  0  0  0  0  0  0
   -6.4286   -2.4503  -18.2683 C   0  0  2  0  0  0  0  0  0  0  0  0
   -5.7745   -1.2210  -17.7117 C   0  0  1  0  0  0  0  0  0  0  0  0
   -4.3021   -1.5798  -17.8208 C   0  0  1  0  0  0  0  0  0  0  0  0
   -3.1825    0.3520  -19.0040 C   0  0  0  0  0  0  0  0  0  0  0  0
   -3.2913    1.1381  -21.1932 C   0  0  0  0  0  0  0  0  0  0  0  0
   -1.7447    2.1177  -19.6654 C   0  0  0  0  0  0  0  0  0  0  0  0
   -2.2019    1.2318  -18.6977 C   0  0  0  0  0  0  0  0  0  0  0  0
   -2.5574    0.0219  -16.9921 C   0  0  0  0  0  0  0  0  0  0  0  0
   -6.9643    2.9859  -17.8760 C   0  0  0  0  0  0  0  0  0  0  0  0
   -5.8321    3.5284  -18.7297 C   0  0  2  0  0  0  0  0  0  0  0  0
   -4.8960    4.3042  -17.8450 C   0  0  2  0  0  0  0  0  0  0  0  0
   -4.4240    5.4356  -18.7265 C   0  0  2  0  0  0  0  0  0  0  0  0
   -5.2978    5.3199  -19.9651 C   0  0  1  0  0  0  0  0  0  0  0  0
   -6.4635    6.9073  -21.5141 C   0  0  0  0  0  0  0  0  0  0  0  0
   -7.2911    6.6223  -23.6692 C   0  0  0  0  0  0  0  0  0  0  0  0
   -7.5143    8.7373  -22.5874 C   0  0  0  0  0  0  0  0  0  0  0  0
   -6.8674    8.1955  -21.4906 C   0  0  0  0  0  0  0  0  0  0  0  0
   -5.9235    7.7630  -19.6371 C   0  0  0  0  0  0  0  0  0  0  0  0
   -3.5721  -12.3268  -17.8940 C   0  0  1  0  0  0  0  0  0  0  0  0
   -2.8035  -13.5488  -17.4267 C   0  0  1  0  0  0  0  0  0  0  0  0
   -3.3746  -14.0208  -16.0990 C   0  0  0  0  0  0  0  0  0  0  0  0
   -5.5875  -13.0639  -18.8735 O   0  0  0  0  0  0  0  0  0  0  0  0
   -6.8463  -12.9833  -21.1649 O   0  0  0  0  0  0  0  0  0  0  0  0
   -5.6335  -10.7734  -20.4630 O   0  0  0  0  0  0  0  0  0  0  0  0
   -4.7902   -8.6240  -19.1409 O   0  0  0  0  0  0  0  0  0  0  0  0
   -5.5717   -6.6609  -21.3867 O   0  0  0  0  0  0  0  0  0  0  0  0
   -7.4061   -4.8222  -21.7466 O   0  0  0  0  0  0  0  0  0  0  0  0
   -4.9162   -3.9547  -21.2771 O   0  0  0  0  0  0  0  0  0  0  0  0
   -4.1155   -2.4495  -18.9062 O   0  0  0  0  0  0  0  0  0  0  0  0
   -6.0894   -0.1184  -18.5184 O   0  0  0  0  0  0  0  0  0  0  0  0
   -7.4066    0.7104  -16.3680 O   0  0  0  0  0  0  0  0  0  0  0  0
   -7.7482    2.0841  -18.6042 O   0  0  0  0  0  0  0  0  0  0  0  0
   -6.3369    4.4012  -19.7112 O   0  0  0  0  0  0  0  0  0  0  0  0
   -3.0830    5.2849  -19.0930 O   0  0  0  0  0  0  0  0  0  0  0  0
   -0.7756    6.3952  -18.5662 O   0  0  0  0  0  0  0  0  0  0  0  0
   -2.4698    6.2946  -16.5804 O   0  0  0  0  0  0  0  0  0  0  0  0
   -2.8036    8.0283  -18.6960 O   0  0  0  0  0  0  0  0  0  0  0  0
   -3.8461    3.4827  -17.4157 O   0  0  0  0  0  0  0  0  0  0  0  0
   -8.8298   -0.4180  -18.2507 O   0  0  0  0  0  0  0  0  0  0  0  0
   -6.8061   -3.2930  -17.2194 O   0  0  0  0  0  0  0  0  0  0  0  0
   -5.6626   -5.1217  -23.6562 O   0  0  0  0  0  0  0  0  0  0  0  0
   -7.3389   -6.9016  -18.3483 O   0  0  0  0  0  0  0  0  0  0  0  0
   -7.9533  -11.7051  -19.1795 O   0  0  0  0  0  0  0  0  0  0  0  0
   -2.6790  -11.2941  -18.1829 O   0  0  0  0  0  0  0  0  0  0  0  0
   -2.9054  -14.5806  -18.3813 O   0  0  0  0  0  0  0  0  0  0  0  0
   -2.5004  -14.9362  -15.5087 O   0  0  0  0  0  0  0  0  0  0  0  0
   -3.2386  -17.1195  -16.7801 O   0  0  0  0  0  0  0  0  0  0  0  0
   -2.6300  -17.3985  -14.2633 O   0  0  0  0  0  0  0  0  0  0  0  0
   -4.9618  -16.1822  -15.0607 O   0  0  0  0  0  0  0  0  0  0  0  0
   -6.5143  -12.1395  -19.9572 P   0  0  2  0  0  0  0  0  0  0  0  0
   -5.9412   -5.1184  -21.9872 P   0  0  1  0  0  0  0  0  0  0  0  0
   -7.5072    0.5694  -17.8765 P   0  0  1  0  0  0  0  0  0  0  0  0
   -2.2468    6.4983  -18.2442 P   0  0  0  0  0  0  0  0  0  0  0  0
   -3.3304  -16.4169  -15.4464 P   0  0  0  0  0  0  0  0  0  0  0  0
  5 22  1  0
  6 33  1  0
 11 43  1  0
 16 53  1  0
 21  2  2  0
 22 23  2  0
 23  4  1  0
 24  3  1  0
 24  1  2  0
 25  5  1  0
 26  5  1  1
 26 27  1  0
 26 84  1  0
 27 61  1  1
 27 58  1  0
 28 63  1  0
 29 28  1  6
 29 30  1  0
 29 64  1  0
 30 31  1  0
 30 81  1  1
 31 32  1  0
 31 65  1  6
 32  6  1  1
 32 64  1  0
 34  7  2  0
 35  8  2  0
 35 10  1  0
 36  9  1  0
 36 33  2  0
 37  6  1  0
 38 67  1  0
 39 38  1  6
 39 40  1  0
 39 68  1  0
 40 41  1  0
 40 79  1  1
 41 42  1  0
 41 69  1  6
 42 11  1  6
 42 68  1  0
 44 12  2  0
 45 13  2  0
 45 15  1  0
 46 14  1  0
 46 43  2  0
 47 11  1  0
 48 71  1  0
 49 48  1  1
 49 50  1  0
 49 72  1  0
 50 51  1  0
 50 77  1  6
 51 52  1  0
 51 73  1  6
 52 16  1  1
 52 72  1  0
 54 17  2  0
 55 18  2  0
 55 20  1  0
 56 19  1  0
 56 53  2  0
 57 16  1  0
 58 83  1  6
 58 59  1  0
 59 84  1  0
 59 60  1  1
 60 85  1  0
 89 61  1  0
 89 63  1  0
 89 82  1  1
 90 65  1  0
 90 67  1  0
 90 80  1  6
 91 69  1  0
 91 71  1  0
 91 78  1  1
 92 73  1  0
 92 75  1  0
 92 76  1  0
 93 85  1  0
 93 87  1  0
 93 88  1  0
 21  1  1  0
 22  2  1  0
 23 24  1  0
 25  4  2  0
 33  7  1  0
 34  8  1  0
 35 36  1  0
 37  9  2  0
 43 12  1  0
 44 13  1  0
 45 46  1  0
 47 14  2  0
 53 17  1  0
 54 18  1  0
 55 56  1  0
 57 19  2  0
 89 62  2  0
 90 66  2  0
 91 70  2  0
 92 74  2  0
 93 86  2  0
M  END
>  <rmsd>  (2) 
0.621634007

$$$$
CHEMBL1331383 PubChem-6603812
     RDKit          3D

 53 58  0  0  0  0  0  0  0  0999 V2000
   -5.0303   -5.5150  -18.0450 P   0  0  2  0  0  0  0  0  0  0  0  0
   -3.0683   -7.3977  -18.4692 P   0  0  2  0  0  0  0  0  0  0  0  0
   -2.9423   -8.7501  -20.8667 P   0  0  2  0  0  0  0  0  0  0  0  0
   -6.7320   -4.9841  -20.1414 P   0  0  1  0  0  0  0  0  0  0  0  0
   -4.1178   -4.4888  -18.6839 O   0  0  0  0  0  0  0  0  0  0  0  0
   -4.1039   -6.7299  -17.2932 O   0  0  0  0  0  0  0  0  0  0  0  0
   -1.9800   -6.4014  -18.8021 O   0  0  0  0  0  0  0  0  0  0  0  0
   -3.9454   -7.7948  -19.8755 O   0  0  0  0  0  0  0  0  0  0  0  0
   -3.5853   -8.8748  -22.2301 O   0  0  0  0  0  0  0  0  0  0  0  0
   -2.7462  -10.2977  -20.2005 O   0  0  0  0  0  0  0  0  0  0  0  0
   -3.7782  -12.6894  -21.4061 O   0  0  0  0  0  0  0  0  0  0  0  0
   -5.0714  -15.1527  -20.0615 O   0  0  0  0  0  0  0  0  0  0  0  0
   -5.3779  -13.2281  -18.3244 O   0  0  0  0  0  0  0  0  0  0  0  0
   -1.4206   -8.0314  -21.0599 O   0  0  0  0  0  0  0  0  0  0  0  0
   -2.3588   -8.7824  -17.8025 O   0  0  0  0  0  0  0  0  0  0  0  0
   -6.0739   -6.2282  -19.1879 O   0  0  0  0  0  0  0  0  0  0  0  0
   -7.8399   -5.5659  -20.9911 O   0  0  0  0  0  0  0  0  0  0  0  0
   -7.3801   -3.7657  -19.1520 O   0  0  0  0  0  0  0  0  0  0  0  0
   -5.7078   -1.5523  -18.7709 O   0  0  0  0  0  0  0  0  0  0  0  0
   -6.7902    0.6828  -16.9657 O   0  0  0  0  0  0  0  0  0  0  0  0
   -8.8604   -0.1045  -18.3399 O   0  0  0  0  0  0  0  0  0  0  0  0
   -5.5298   -4.3636  -21.1628 O   0  0  0  0  0  0  0  0  0  0  0  0
   -5.9547   -4.7552  -16.8518 O   0  0  0  0  0  0  0  0  0  0  0  0
   -4.0398  -10.7766  -19.9852 C   0  0  0  0  0  0  0  0  0  0  0  0
   -4.0481  -12.2907  -20.0826 C   0  0  1  0  0  0  0  0  0  0  0  0
   -4.8442  -13.5164  -21.8099 C   0  0  2  0  0  0  0  0  0  0  0  0
   -3.3109  -15.4226  -22.4587 C   0  0  0  0  0  0  0  0  0  0  0  0
   -1.4123  -16.3320  -21.4556 C   0  0  0  0  0  0  0  0  0  0  0  0
   -2.1550  -17.1736  -23.5598 C   0  0  0  0  0  0  0  0  0  0  0  0
   -3.1928  -16.2538  -23.5150 C   0  0  0  0  0  0  0  0  0  0  0  0
   -4.8604  -14.9828  -23.8504 C   0  0  0  0  0  0  0  0  0  0  0  0
   -5.6233  -13.9815  -20.5924 C   0  0  2  0  0  0  0  0  0  0  0  0
   -5.3993  -12.8248  -19.6630 C   0  0  1  0  0  0  0  0  0  0  0  0
   -7.4966   -2.6357  -19.9668 C   0  0  0  0  0  0  0  0  0  0  0  0
   -7.0371   -1.3935  -19.2161 C   0  0  1  0  0  0  0  0  0  0  0  0
   -5.7401   -1.4441  -17.3684 C   0  0  2  0  0  0  0  0  0  0  0  0
   -3.8473    0.2330  -17.2949 C   0  0  0  0  0  0  0  0  0  0  0  0
   -3.3298    2.0926  -18.6034 C   0  0  0  0  0  0  0  0  0  0  0  0
   -1.8876    1.4717  -16.8080 C   0  0  0  0  0  0  0  0  0  0  0  0
   -2.7424    0.4117  -16.5413 C   0  0  0  0  0  0  0  0  0  0  0  0
   -3.7582   -1.3113  -15.8300 C   0  0  0  0  0  0  0  0  0  0  0  0
   -6.9956   -0.7016  -16.9436 C   0  0  2  0  0  0  0  0  0  0  0  0
   -7.9443   -1.1130  -18.0336 C   0  0  1  0  0  0  0  0  0  0  0  0
   -4.3634  -14.6163  -22.6436 N   0  0  0  0  0  0  0  0  0  0  0  0
   -2.4388  -15.4287  -21.4223 N   0  0  0  0  0  0  0  0  0  0  0  0
   -1.2756  -17.1938  -22.5148 N   0  0  0  0  0  0  0  0  0  0  0  0
   -1.9927  -18.0595  -24.6609 N   0  0  0  0  0  0  0  0  0  0  0  0
   -4.1582  -16.0050  -24.4178 N   0  0  0  0  0  0  0  0  0  0  0  0
   -4.5114   -0.8435  -16.8565 N   0  0  0  0  0  0  0  0  0  0  0  0
   -4.1668    1.0458  -18.3309 N   0  0  0  0  0  0  0  0  0  0  0  0
   -2.2051    2.3011  -17.8455 N   0  0  0  0  0  0  0  0  0  0  0  0
   -0.7236    1.7036  -16.0205 N   0  0  0  0  0  0  0  0  0  0  0  0
   -2.6504   -0.5495  -15.6047 N   0  0  0  0  0  0  0  0  0  0  0  0
  1  6  1  0
  1 16  1  0
  1 23  1  1
  2  6  1  0
  2  8  1  0
  2 15  1  1
  3  8  1  0
  3 10  1  0
  3 14  1  6
  4 16  1  0
  4 18  1  0
  4 22  1  6
 24 10  1  0
 25 24  1  6
 25 11  1  0
 26 11  1  0
 26 44  1  1
 26 32  1  0
 28 45  2  0
 29 46  2  0
 29 47  1  0
 30 48  1  0
 30 27  2  0
 31 44  1  0
 32 12  1  1
 32 33  1  0
 33 13  1  1
 33 25  1  0
 34 18  1  0
 35 34  1  1
 35 19  1  0
 36 19  1  0
 36 49  1  6
 36 42  1  0
 38 50  2  0
 39 51  2  0
 39 52  1  0
 40 53  1  0
 40 37  2  0
 41 49  1  0
 42 20  1  6
 42 43  1  0
 43 21  1  6
 43 35  1  0
 44 27  1  0
 49 37  1  0
  1  5  2  0
  2  7  2  0
  3  9  2  0
  4 17  2  0
 27 45  1  0
 28 46  1  0
 29 30  1  0
 31 48  2  0
 37 50  1  0
 38 51  1  0
 39 40  1  0
 41 53  2  0
M  END
>  <rmsd>  (3) 
0.848180473

$$$$
CHEMBL505121 MolPort-046-162-809 PubChem-129316182 PubChem-44571034
     RDKit          3D

 64 66  0  0  0  0  0  0  0  0999 V2000
   -3.8264  -24.6514  -24.8478 C   0  0  0  0  0  0  0  0  0  0  0  0
   -3.2453  -23.3133  -25.1254 C   0  0  0  0  0  0  0  0  0  0  0  0
   -1.2416  -21.7737  -25.0632 C   0  0  1  0  0  0  0  0  0  0  0  0
   -1.2213  -20.9622  -23.7727 C   0  0  0  0  0  0  0  0  0  0  0  0
   -2.5953  -20.3954  -23.4349 C   0  0  0  0  0  0  0  0  0  0  0  0
   -3.0226  -19.3177  -24.4267 C   0  0  0  0  0  0  0  0  0  0  0  0
   -2.1183  -18.0944  -24.3515 C   0  0  0  0  0  0  0  0  0  0  0  0
   -3.4755  -16.6131  -22.8027 C   0  0  0  0  0  0  0  0  0  0  0  0
   -3.5832  -15.9004  -21.4983 C   0  0  0  0  0  0  0  0  0  0  0  0
   -1.0680  -15.2034  -21.1367 C   0  0  0  0  0  0  0  0  0  0  0  0
    0.0919  -14.2307  -21.2224 C   0  0  0  0  0  0  0  0  0  0  0  0
   -0.0643  -11.9499  -20.1657 C   0  0  0  0  0  0  0  0  0  0  0  0
    0.0086  -11.1054  -18.9403 C   0  0  0  0  0  0  0  0  0  0  0  0
   -1.3669  -10.9306  -18.3175 C   0  0  0  0  0  0  0  0  0  0  0  0
   -2.6265   -8.7730  -18.6423 C   0  0  0  0  0  0  0  0  0  0  0  0
   -3.4410   -7.8684  -19.5168 C   0  0  1  0  0  0  0  0  0  0  0  0
   -2.7328   -7.4229  -20.8188 C   0  0  0  0  0  0  0  0  0  0  0  0
   -2.6418   -8.5633  -21.8241 C   0  0  0  0  0  0  0  0  0  0  0  0
   -1.3236   -6.9415  -20.5172 C   0  0  0  0  0  0  0  0  0  0  0  0
   -3.4732   -6.2400  -21.4436 C   0  0  0  0  0  0  0  0  0  0  0  0
   -6.0988   -1.5272  -18.7877 C   0  0  0  0  0  0  0  0  0  0  0  0
   -5.4036   -1.0864  -17.5090 C   0  0  2  0  0  0  0  0  0  0  0  0
   -3.6881    0.2576  -16.9012 C   0  0  1  0  0  0  0  0  0  0  0  0
   -4.9265    0.8264  -16.2307 C   0  0  1  0  0  0  0  0  0  0  0  0
   -6.0512    0.1641  -16.9778 C   0  0  2  0  0  0  0  0  0  0  0  0
   -2.8491    1.4225  -18.9923 C   0  0  0  0  0  0  0  0  0  0  0  0
   -1.8492    3.1026  -18.1658 C   0  0  0  0  0  0  0  0  0  0  0  0
   -1.1442    4.2662  -17.8948 C   0  0  0  0  0  0  0  0  0  0  0  0
   -1.5146    3.8691  -15.5715 C   0  0  0  0  0  0  0  0  0  0  0  0
   -2.3563    2.3714  -17.1509 C   0  0  0  0  0  0  0  0  0  0  0  0
    0.1518  -21.9663  -25.5614 C   0  0  0  0  0  0  0  0  0  0  0  0
   -3.9695  -22.4089  -25.6201 O   0  0  0  0  0  0  0  0  0  0  0  0
   -4.3981  -16.4994  -23.6539 O   0  0  0  0  0  0  0  0  0  0  0  0
   -0.2957  -11.4164  -21.2844 O   0  0  0  0  0  0  0  0  0  0  0  0
   -2.3529   -8.4091  -17.4684 O   0  0  0  0  0  0  0  0  0  0  0  0
   -4.6799   -8.4583  -19.7812 O   0  0  0  0  0  0  0  0  0  0  0  0
   -4.7573   -6.5963  -21.8750 O   0  0  0  0  0  0  0  0  0  0  0  0
   -7.3574   -5.7043  -21.8058 O   0  0  0  0  0  0  0  0  0  0  0  0
   -5.3407   -4.0401  -21.8431 O   0  0  0  0  0  0  0  0  0  0  0  0
   -5.7323   -5.3900  -19.5830 O   0  0  0  0  0  0  0  0  0  0  0  0
   -6.7189   -4.1154  -17.3527 O   0  0  0  0  0  0  0  0  0  0  0  0
   -7.8212   -3.7613  -19.6912 O   0  0  0  0  0  0  0  0  0  0  0  0
   -5.4576   -2.6454  -19.3268 O   0  0  0  0  0  0  0  0  0  0  0  0
   -4.0527   -0.7995  -17.7642 O   0  0  0  0  0  0  0  0  0  0  0  0
   -4.9231    0.4497  -14.8847 O   0  0  0  0  0  0  0  0  0  0  0  0
   -7.1338   -0.1442  -16.1430 O   0  0  0  0  0  0  0  0  0  0  0  0
   -9.7376    0.6403  -15.6563 O   0  0  0  0  0  0  0  0  0  0  0  0
   -7.9939    2.4044  -16.8542 O   0  0  0  0  0  0  0  0  0  0  0  0
   -8.8578    0.2608  -18.0871 O   0  0  0  0  0  0  0  0  0  0  0  0
    0.4862  -21.4857  -26.6740 O   0  0  0  0  0  0  0  0  0  0  0  0
   -1.8684  -23.0695  -24.8397 N   0  0  0  0  0  0  0  0  0  0  0  0
   -2.3075  -17.3860  -23.0925 N   0  0  0  0  0  0  0  0  0  0  0  0
    0.0982  -13.3633  -20.0552 N   0  0  0  0  0  0  0  0  0  0  0  0
   -2.1704  -10.0346  -19.1329 N   0  0  0  0  0  0  0  0  0  0  0  0
   -2.9959    1.3072  -17.6457 N   0  0  0  0  0  0  0  0  0  0  0  0
   -2.1413    2.5319  -19.3490 N   0  0  0  0  0  0  0  0  0  0  0  0
   -0.5976    5.0644  -18.9387 N   0  0  0  0  0  0  0  0  0  0  0  0
   -0.9899    4.6292  -16.5867 N   0  0  0  0  0  0  0  0  0  0  0  0
   -2.2084    2.7230  -15.8489 N   0  0  0  0  0  0  0  0  0  0  0  0
    1.1062  -22.6864  -24.7865 N   0  0  0  0  0  0  0  0  0  0  0  0
   -2.6249  -14.3578  -21.5488 S   0  0  0  0  0  0  0  0  0  0  0  0
   -5.7814   -5.3782  -21.2866 P   0  0  2  0  0  0  0  0  0  0  0  0
   -6.4790   -3.9668  -19.0216 P   0  0  2  0  0  0  0  0  0  0  0  0
   -8.4365    0.7753  -16.7291 P   0  0  0  0  0  0  0  0  0  0  0  0
  1  2  1  0
  2 51  1  0
  3 51  1  0
  3  4  1  1
  3 31  1  0
  4  5  1  0
  5  6  1  0
  6  7  1  0
  7 52  1  0
  9  8  1  0
  9 61  1  0
 10 61  1  0
 10 11  1  0
 11 53  1  0
 13 12  1  0
 13 14  1  0
 14 54  1  0
 16 15  1  0
 16 36  1  6
 16 17  1  0
 17 18  1  0
 17 19  1  0
 17 20  1  0
 20 37  1  0
 21 43  1  0
 22 21  1  6
 22 44  1  0
 23 44  1  0
 23 24  1  0
 23 55  1  6
 24 45  1  1
 24 25  1  0
 25 46  1  1
 25 22  1  0
 27 56  1  0
 28 57  1  0
 28 58  2  0
 29 59  2  0
 30 55  1  0
 30 27  2  0
 31 60  1  0
 52  8  1  0
 53 12  1  0
 54 15  1  0
 55 26  1  0
 62 37  1  0
 62 38  1  1
 62 40  1  0
 63 40  1  0
 63 41  1  1
 63 43  1  0
 64 46  1  0
 64 47  1  0
 64 48  1  0
  2 32  2  0
  8 33  2  0
 12 34  2  0
 15 35  2  0
 26 56  2  0
 27 28  1  0
 29 58  1  0
 30 59  1  0
 31 50  2  0
 62 39  2  0
 63 42  2  0
 64 49  2  0
M  END
>  <rmsd>  (4) 
0.631882668

$$$$
CHEMBL220234 PubChem-44413860
     RDKit          3D

 93104  0  0  0  0  0  0  0  0999 V2000
    2.5432    8.1571  -10.5472 N   0  0  0  0  0  0  0  0  0  0  0  0
    0.3150    8.2427  -11.3885 N   0  0  0  0  0  0  0  0  0  0  0  0
    3.1187    6.8550   -8.5802 N   0  0  0  0  0  0  0  0  0  0  0  0
    0.2081    6.1463   -8.5780 N   0  0  0  0  0  0  0  0  0  0  0  0
   -1.2646    6.9360  -10.1090 N   0  0  0  0  0  0  0  0  0  0  0  0
   -3.9919    1.4915  -17.6868 N   0  0  0  0  0  0  0  0  0  0  0  0
   -4.1026    3.7053  -18.6518 N   0  0  0  0  0  0  0  0  0  0  0  0
   -2.6204    4.0277  -20.4878 N   0  0  0  0  0  0  0  0  0  0  0  0
   -2.4062    0.6663  -19.0818 N   0  0  0  0  0  0  0  0  0  0  0  0
   -1.1533    2.2669  -21.2757 N   0  0  0  0  0  0  0  0  0  0  0  0
   -5.1936   -5.5337  -20.2968 N   0  0  0  0  0  0  0  0  0  0  0  0
   -7.0242   -4.8468  -21.7150 N   0  0  0  0  0  0  0  0  0  0  0  0
   -6.4022   -4.4788  -23.9824 N   0  0  0  0  0  0  0  0  0  0  0  0
   -3.5930   -5.5300  -21.9044 N   0  0  0  0  0  0  0  0  0  0  0  0
   -4.1296   -4.8108  -24.7619 N   0  0  0  0  0  0  0  0  0  0  0  0
   -6.4080  -10.6921  -23.5244 N   0  0  0  0  0  0  0  0  0  0  0  0
   -7.7662  -10.8261  -25.5233 N   0  0  0  0  0  0  0  0  0  0  0  0
   -7.9171  -13.0155  -26.4475 N   0  0  0  0  0  0  0  0  0  0  0  0
   -5.8425  -12.8852  -23.4435 N   0  0  0  0  0  0  0  0  0  0  0  0
   -6.7784  -14.9058  -25.4370 N   0  0  0  0  0  0  0  0  0  0  0  0
    1.6302    8.6174  -11.4667 C   0  0  0  0  0  0  0  0  0  0  0  0
   -0.0464    7.4126  -10.3798 C   0  0  0  0  0  0  0  0  0  0  0  0
    0.8317    6.9443   -9.4652 C   0  0  0  0  0  0  0  0  0  0  0  0
    2.1689    7.3119   -9.5388 C   0  0  0  0  0  0  0  0  0  0  0  0
   -1.0896    6.1629   -9.0030 C   0  0  0  0  0  0  0  0  0  0  0  0
   -2.5026    7.2068  -10.8311 C   0  0  1  0  0  0  0  0  0  0  0  0
   -3.0395    5.9532  -11.4672 C   0  0  1  0  0  0  0  0  0  0  0  0
   -3.8766    2.0947  -13.2502 C   0  0  0  0  0  0  0  0  0  0  0  0
   -4.8330    1.7532  -14.3860 C   0  0  2  0  0  0  0  0  0  0  0  0
   -4.9553    0.2689  -14.6609 C   0  0  1  0  0  0  0  0  0  0  0  0
   -5.4255    0.2566  -16.0836 C   0  0  2  0  0  0  0  0  0  0  0  0
   -4.9829    1.6157  -16.6203 C   0  0  1  0  0  0  0  0  0  0  0  0
   -3.6258    2.4414  -18.5528 C   0  0  0  0  0  0  0  0  0  0  0  0
   -3.5884    4.5045  -19.6365 C   0  0  0  0  0  0  0  0  0  0  0  0
   -2.1446    2.7526  -20.3765 C   0  0  0  0  0  0  0  0  0  0  0  0
   -2.6782    1.9498  -19.3817 C   0  0  0  0  0  0  0  0  0  0  0  0
   -3.2352    0.4137  -18.0285 C   0  0  0  0  0  0  0  0  0  0  0  0
   -6.2682   -2.9628  -16.7681 C   0  0  0  0  0  0  0  0  0  0  0  0
   -6.3210   -4.4033  -17.2305 C   0  0  2  0  0  0  0  0  0  0  0  0
   -5.0604   -5.1282  -16.8521 C   0  0  2  0  0  0  0  0  0  0  0  0
   -4.9540   -6.1907  -17.9194 C   0  0  2  0  0  0  0  0  0  0  0  0
   -5.8836   -5.6812  -19.0163 C   0  0  1  0  0  0  0  0  0  0  0  0
   -5.7349   -5.1771  -21.4658 C   0  0  0  0  0  0  0  0  0  0  0  0
   -7.3536   -4.4876  -22.9931 C   0  0  0  0  0  0  0  0  0  0  0  0
   -5.1050   -4.8199  -23.7230 C   0  0  0  0  0  0  0  0  0  0  0  0
   -4.7799   -5.1711  -22.4221 C   0  0  0  0  0  0  0  0  0  0  0  0
   -3.8830   -5.7458  -20.5874 C   0  0  0  0  0  0  0  0  0  0  0  0
   -5.6293   -9.2767  -19.8736 C   0  0  0  0  0  0  0  0  0  0  0  0
   -6.2234   -8.5612  -21.0708 C   0  0  2  0  0  0  0  0  0  0  0  0
   -7.6712   -8.9338  -21.2252 C   0  0  2  0  0  0  0  0  0  0  0  0
   -7.8735   -8.9078  -22.7114 C   0  0  2  0  0  0  0  0  0  0  0  0
   -6.4897   -9.2613  -23.2170 C   0  0  1  0  0  0  0  0  0  0  0  0
   -6.9821  -11.3400  -24.5462 C   0  0  0  0  0  0  0  0  0  0  0  0
   -8.2388  -11.6800  -26.4826 C   0  0  0  0  0  0  0  0  0  0  0  0
   -7.1197  -13.5234  -25.4608 C   0  0  0  0  0  0  0  0  0  0  0  0
   -6.6478  -12.6472  -24.4940 C   0  0  0  0  0  0  0  0  0  0  0  0
   -5.7091  -11.6554  -22.8668 C   0  0  0  0  0  0  0  0  0  0  0  0
   -4.5119    6.2463  -11.5508 C   0  0  1  0  0  0  0  0  0  0  0  0
   -4.7268    7.2537  -10.4447 C   0  0  1  0  0  0  0  0  0  0  0  0
   -5.5094    6.5953   -9.3265 C   0  0  0  0  0  0  0  0  0  0  0  0
   -2.4609    5.7504  -12.7281 O   0  0  0  0  0  0  0  0  0  0  0  0
   -1.7206    3.7678  -14.2673 O   0  0  0  0  0  0  0  0  0  0  0  0
   -3.9828    3.4564  -12.9528 O   0  0  0  0  0  0  0  0  0  0  0  0
   -4.4487    2.3922  -15.5748 O   0  0  0  0  0  0  0  0  0  0  0  0
   -6.8224    0.1918  -16.1082 O   0  0  0  0  0  0  0  0  0  0  0  0
   -6.2434   -0.7314  -18.5501 O   0  0  0  0  0  0  0  0  0  0  0  0
   -7.5275   -2.3830  -16.9245 O   0  0  0  0  0  0  0  0  0  0  0  0
   -6.4371   -4.4505  -18.6267 O   0  0  0  0  0  0  0  0  0  0  0  0
   -5.4209   -7.4300  -17.4498 O   0  0  0  0  0  0  0  0  0  0  0  0
   -4.5457   -9.8923  -17.2425 O   0  0  0  0  0  0  0  0  0  0  0  0
   -4.3439   -8.7891  -19.6197 O   0  0  0  0  0  0  0  0  0  0  0  0
   -5.5308   -8.9151  -22.2415 O   0  0  0  0  0  0  0  0  0  0  0  0
   -8.2040   -7.6127  -23.1378 O   0  0  0  0  0  0  0  0  0  0  0  0
   -8.9921   -8.1338  -25.5836 O   0  0  0  0  0  0  0  0  0  0  0  0
  -10.5763   -8.9805  -23.6746 O   0  0  0  0  0  0  0  0  0  0  0  0
  -10.3381   -6.3046  -24.2822 O   0  0  0  0  0  0  0  0  0  0  0  0
   -8.4873   -8.0054  -20.5748 O   0  0  0  0  0  0  0  0  0  0  0  0
   -2.7131   -8.0554  -17.5190 O   0  0  0  0  0  0  0  0  0  0  0  0
   -5.1779   -5.6774  -15.5687 O   0  0  0  0  0  0  0  0  0  0  0  0
   -8.7322   -0.1957  -18.0407 O   0  0  0  0  0  0  0  0  0  0  0  0
   -3.7130   -0.3603  -14.5944 O   0  0  0  0  0  0  0  0  0  0  0  0
   -1.5115    3.3553  -11.6911 O   0  0  0  0  0  0  0  0  0  0  0  0
   -4.8327    6.8440  -12.7732 O   0  0  0  0  0  0  0  0  0  0  0  0
   -3.4826    7.7033   -9.9551 O   0  0  0  0  0  0  0  0  0  0  0  0
   -5.9005    7.5530   -8.3873 O   0  0  0  0  0  0  0  0  0  0  0  0
   -6.5784    5.6882   -6.6664 O   0  0  0  0  0  0  0  0  0  0  0  0
   -8.3429    6.2369   -8.5346 O   0  0  0  0  0  0  0  0  0  0  0  0
   -7.8205    7.9764   -6.4574 O   0  0  0  0  0  0  0  0  0  0  0  0
   -2.3984    4.0669  -12.9469 P   0  0  2  0  0  0  0  0  0  0  0  0
   -7.2684   -0.7826  -17.4339 P   0  0  1  0  0  0  0  0  0  0  0  0
   -4.2667   -8.5770  -17.9401 P   0  0  1  0  0  0  0  0  0  0  0  0
   -9.5107   -7.7790  -24.2071 P   0  0  0  0  0  0  0  0  0  0  0  0
   -7.1447    6.8240   -7.4931 P   0  0  0  0  0  0  0  0  0  0  0  0
  5 22  1  0
  6 33  1  0
 11 43  1  0
 16 53  1  0
 21  2  2  0
 22 23  2  0
 23  4  1  0
 24  3  1  0
 24  1  2  0
 25  5  1  0
 26  5  1  1
 26 27  1  0
 26 84  1  0
 27 61  1  6
 27 58  1  0
 28 63  1  0
 29 28  1  1
 29 30  1  0
 29 64  1  0
 30 31  1  0
 30 81  1  6
 31 32  1  0
 31 65  1  1
 32  6  1  6
 32 64  1  0
 34  7  2  0
 35  8  2  0
 35 10  1  0
 36  9  1  0
 36 33  2  0
 37  6  1  0
 38 67  1  0
 39 38  1  6
 39 40  1  0
 39 68  1  0
 40 41  1  0
 40 79  1  1
 41 42  1  0
 41 69  1  1
 42 11  1  6
 42 68  1  0
 44 12  2  0
 45 13  2  0
 45 15  1  0
 46 14  1  0
 46 43  2  0
 47 11  1  0
 48 71  1  0
 49 48  1  1
 49 50  1  0
 49 72  1  0
 50 51  1  0
 50 77  1  1
 51 52  1  0
 51 73  1  6
 52 16  1  1
 52 72  1  0
 54 17  2  0
 55 18  2  0
 55 20  1  0
 56 19  1  0
 56 53  2  0
 57 16  1  0
 58 83  1  6
 58 59  1  0
 59 84  1  0
 59 60  1  1
 60 85  1  0
 89 61  1  0
 89 63  1  0
 89 82  1  1
 90 65  1  0
 90 67  1  0
 90 80  1  6
 91 69  1  0
 91 71  1  0
 91 78  1  6
 92 73  1  0
 92 75  1  0
 92 76  1  0
 93 85  1  0
 93 87  1  0
 93 88  1  0
 21  1  1  0
 22  2  1  0
 23 24  1  0
 25  4  2  0
 33  7  1  0
 34  8  1  0
 35 36  1  0
 37  9  2  0
 43 12  1  0
 44 13  1  0
 45 46  1  0
 47 14  2  0
 53 17  1  0
 54 18  1  0
 55 56  1  0
 57 19  2  0
 89 62  2  0
 90 66  2  0
 91 70  2  0
 92 74  2  0
 93 86  2  0
M  END
>  <rmsd>  (5) 
0.694786191

$$$$
CHEMBL1161857 PubChem-11849527 PubChem-11849528
     RDKit          3D

 63 65  0  0  0  0  0  0  0  0999 V2000
   -5.1856   -6.7887  -19.9744 P   0  0  2  0  0  0  0  0  0  0  0  0
   -7.5095   -5.3046  -20.0542 P   0  0  2  0  0  0  0  0  0  0  0  0
   -9.7808   -1.2948  -17.7862 P   0  0  0  0  0  0  0  0  0  0  0  0
   -4.6214   -8.1602  -19.6792 O   0  0  0  0  0  0  0  0  0  0  0  0
   -6.8467   -6.8042  -19.5940 O   0  0  0  0  0  0  0  0  0  0  0  0
   -7.3242   -5.0728  -21.5375 O   0  0  0  0  0  0  0  0  0  0  0  0
   -6.7910   -4.0356  -19.1906 O   0  0  0  0  0  0  0  0  0  0  0  0
   -5.3145   -2.9010  -17.1181 O   0  0  0  0  0  0  0  0  0  0  0  0
   -6.6120   -0.1658  -15.8016 O   0  0  0  0  0  0  0  0  0  0  0  0
   -8.5724   -1.6404  -16.6461 O   0  0  0  0  0  0  0  0  0  0  0  0
  -10.0240   -2.5031  -18.6636 O   0  0  0  0  0  0  0  0  0  0  0  0
  -11.2104   -0.9045  -16.9715 O   0  0  0  0  0  0  0  0  0  0  0  0
   -9.3179    0.0197  -18.7473 O   0  0  0  0  0  0  0  0  0  0  0  0
   -9.1706   -5.3311  -19.7289 O   0  0  0  0  0  0  0  0  0  0  0  0
   -4.9495   -6.4648  -21.6181 O   0  0  0  0  0  0  0  0  0  0  0  0
   -4.3550   -5.6197  -19.0651 O   0  0  0  0  0  0  0  0  0  0  0  0
   -1.1514   -5.4246  -19.4851 O   0  0  0  0  0  0  0  0  0  0  0  0
   -3.0485  -10.0728  -21.1845 O   0  0  0  0  0  0  0  0  0  0  0  0
   -6.2046  -12.7560  -22.4565 O   0  0  0  0  0  0  0  0  0  0  0  0
   -7.4534  -15.3826  -19.6671 O   0  0  0  0  0  0  0  0  0  0  0  0
   -2.1579   -8.1270  -17.4027 O   0  0  0  0  0  0  0  0  0  0  0  0
   -7.1655   -4.2394  -17.8586 C   0  0  0  0  0  0  0  0  0  0  0  0
   -6.7004   -3.0813  -16.9889 C   0  0  2  0  0  0  0  0  0  0  0  0
   -7.3914   -1.8015  -17.3804 C   0  0  2  0  0  0  0  0  0  0  0  0
   -6.3693   -0.7451  -17.0532 C   0  0  2  0  0  0  0  0  0  0  0  0
   -5.0649   -1.5188  -16.9919 C   0  0  2  0  0  0  0  0  0  0  0  0
   -3.7430   -1.7432  -19.1468 C   0  0  0  0  0  0  0  0  0  0  0  0
   -2.7596    0.1359  -19.2320 C   0  0  0  0  0  0  0  0  0  0  0  0
   -3.5254    0.1104  -18.1215 C   0  0  0  0  0  0  0  0  0  0  0  0
   -2.8316    2.2538  -17.5184 C   0  0  0  0  0  0  0  0  0  0  0  0
   -1.9908    1.2558  -19.5141 C   0  0  0  0  0  0  0  0  0  0  0  0
   -4.3391   -6.0992  -17.7510 C   0  0  0  0  0  0  0  0  0  0  0  0
   -2.9834   -5.8642  -17.0747 C   0  0  0  0  0  0  0  0  0  0  0  0
   -1.8679   -6.7783  -17.6391 C   0  0  2  0  0  0  0  0  0  0  0  0
   -1.5375   -6.5595  -19.0945 C   0  0  0  0  0  0  0  0  0  0  0  0
   -1.3755   -7.4543  -21.4446 C   0  0  0  0  0  0  0  0  0  0  0  0
   -1.2869   -8.7940  -22.1597 C   0  0  0  0  0  0  0  0  0  0  0  0
   -2.6107   -9.4775  -22.2062 C   0  0  0  0  0  0  0  0  0  0  0  0
   -4.6735  -10.0961  -23.5325 C   0  0  0  0  0  0  0  0  0  0  0  0
   -5.7098   -9.2227  -22.8491 C   0  0  0  0  0  0  0  0  0  0  0  0
   -6.9506  -10.8519  -21.1873 C   0  0  0  0  0  0  0  0  0  0  0  0
   -6.3570  -12.2211  -21.3228 C   0  0  0  0  0  0  0  0  0  0  0  0
   -5.3921  -14.2598  -20.1763 C   0  0  1  0  0  0  0  0  0  0  0  0
   -4.6930  -14.5473  -18.8528 C   0  0  0  0  0  0  0  0  0  0  0  0
   -3.7489  -15.7327  -18.9794 C   0  0  0  0  0  0  0  0  0  0  0  0
   -2.4997  -15.3335  -19.7519 C   0  0  0  0  0  0  0  0  0  0  0  0
   -0.9084  -16.9646  -18.9133 C   0  0  0  0  0  0  0  0  0  0  0  0
   -6.4642  -15.2735  -20.4447 C   0  0  0  0  0  0  0  0  0  0  0  0
   -3.1571   -6.1671  -15.5967 C   0  0  0  0  0  0  0  0  0  0  0  0
   -2.5812   -4.4000  -17.1765 C   0  0  0  0  0  0  0  0  0  0  0  0
   -4.1596   -1.0645  -18.0459 N   0  0  0  0  0  0  0  0  0  0  0  0
   -2.8715   -1.0220  -19.9078 N   0  0  0  0  0  0  0  0  0  0  0  0
   -3.5831    1.1440  -17.2459 N   0  0  0  0  0  0  0  0  0  0  0  0
   -2.0457    2.3043  -18.6419 N   0  0  0  0  0  0  0  0  0  0  0  0
   -1.1638    1.3163  -20.6687 N   0  0  0  0  0  0  0  0  0  0  0  0
   -1.6180   -7.6442  -20.0223 N   0  0  0  0  0  0  0  0  0  0  0  0
   -3.3563   -9.4820  -23.4239 N   0  0  0  0  0  0  0  0  0  0  0  0
   -5.9633  -12.9205  -20.1404 N   0  0  0  0  0  0  0  0  0  0  0  0
   -1.6030  -16.4734  -19.8903 N   0  0  0  0  0  0  0  0  0  0  0  0
   -0.9715  -16.3978  -17.6081 N   0  0  0  0  0  0  0  0  0  0  0  0
   -0.0675  -18.0865  -19.1482 N   0  0  0  0  0  0  0  0  0  0  0  0
   -6.3639  -16.1214  -21.5857 N   0  0  0  0  0  0  0  0  0  0  0  0
   -7.3153  -10.0736  -22.7961 S   0  0  0  0  0  0  0  0  0  0  0  0
  1  5  1  0
  1 15  1  6
  1 16  1  0
  2  5  1  0
  2  7  1  0
  2 14  1  6
  3 10  1  0
  3 12  1  0
  3 13  1  0
 22  7  1  0
 23 22  1  6
 23 24  1  0
 23  8  1  0
 24 25  1  0
 24 10  1  1
 25 26  1  0
 25  9  1  1
 26  8  1  0
 26 51  1  6
 28 52  1  0
 29 53  2  0
 29 51  1  0
 30 54  2  0
 31 55  1  0
 31 28  2  0
 32 16  1  0
 32 33  1  0
 33 34  1  0
 33 49  1  0
 33 50  1  0
 34 35  1  0
 34 21  1  6
 35 56  1  0
 36 56  1  0
 36 37  1  0
 37 38  1  0
 38 57  1  0
 39 57  1  0
 39 40  1  0
 40 63  1  0
 41 63  1  0
 41 42  1  0
 42 58  1  0
 43 58  1  0
 43 44  1  1
 43 48  1  0
 44 45  1  0
 45 46  1  0
 46 59  1  0
 47 60  1  0
 47 61  1  0
 48 62  1  0
 51 27  1  0
  1  4  2  0
  2  6  2  0
  3 11  2  0
 27 52  2  0
 28 29  1  0
 30 53  1  0
 31 54  1  0
 35 17  2  0
 38 18  2  0
 42 19  2  0
 47 59  2  0
 48 20  2  0
M  END
>  <rmsd>  (6) 
0.562522888

$$$$
CHEMBL414569 PubChem-44413861
     RDKit          3D

 93104  0  0  0  0  0  0  0  0999 V2000
    0.2767  -16.2661  -25.7362 N   0  0  0  0  0  0  0  0  0  0  0  0
   -1.0945  -14.5949  -26.7219 N   0  0  0  0  0  0  0  0  0  0  0  0
    0.6639  -16.3604  -23.3426 N   0  0  0  0  0  0  0  0  0  0  0  0
   -1.1095  -13.9449  -23.2718 N   0  0  0  0  0  0  0  0  0  0  0  0
   -2.0350  -13.0392  -25.1236 N   0  0  0  0  0  0  0  0  0  0  0  0
   -4.0710   -7.8349  -21.1721 N   0  0  0  0  0  0  0  0  0  0  0  0
   -1.8594   -8.1209  -20.2217 N   0  0  0  0  0  0  0  0  0  0  0  0
   -1.8302   -8.1597  -17.8411 N   0  0  0  0  0  0  0  0  0  0  0  0
   -5.1905   -7.7268  -19.2027 N   0  0  0  0  0  0  0  0  0  0  0  0
   -3.8583   -7.9352  -16.5363 N   0  0  0  0  0  0  0  0  0  0  0  0
   -4.2534   -0.5216  -19.3111 N   0  0  0  0  0  0  0  0  0  0  0  0
   -3.0844   -0.0092  -17.2610 N   0  0  0  0  0  0  0  0  0  0  0  0
   -1.5328    1.7864  -17.4617 N   0  0  0  0  0  0  0  0  0  0  0  0
   -3.2579    1.0512  -20.5985 N   0  0  0  0  0  0  0  0  0  0  0  0
   -1.2047    2.9702  -19.5544 N   0  0  0  0  0  0  0  0  0  0  0  0
   -9.2858    5.7268  -21.5934 N   0  0  0  0  0  0  0  0  0  0  0  0
   -9.3520    6.4021  -19.2676 N   0  0  0  0  0  0  0  0  0  0  0  0
  -10.9404    8.1109  -18.8053 N   0  0  0  0  0  0  0  0  0  0  0  0
  -10.8800    7.1577  -22.3355 N   0  0  0  0  0  0  0  0  0  0  0  0
  -12.3335    9.0671  -20.5389 N   0  0  0  0  0  0  0  0  0  0  0  0
   -0.2912  -15.6920  -26.8470 C   0  0  0  0  0  0  0  0  0  0  0  0
   -1.3100  -14.1075  -25.4731 C   0  0  0  0  0  0  0  0  0  0  0  0
   -0.7631  -14.6526  -24.3666 C   0  0  0  0  0  0  0  0  0  0  0  0
    0.0582  -15.7638  -24.4835 C   0  0  0  0  0  0  0  0  0  0  0  0
   -1.8909  -12.9483  -23.7778 C   0  0  0  0  0  0  0  0  0  0  0  0
   -2.7318  -12.0952  -25.9857 C   0  0  1  0  0  0  0  0  0  0  0  0
   -1.7354  -11.2902  -26.7911 C   0  0  1  0  0  0  0  0  0  0  0  0
   -0.7486   -7.7636  -24.3870 C   0  0  0  0  0  0  0  0  0  0  0  0
   -2.2534   -7.8384  -24.1723 C   0  0  2  0  0  0  0  0  0  0  0  0
   -2.8521   -6.4555  -24.2383 C   0  0  2  0  0  0  0  0  0  0  0  0
   -3.9910   -6.5194  -23.2400 C   0  0  2  0  0  0  0  0  0  0  0  0
   -3.8395   -7.8929  -22.6169 C   0  0  1  0  0  0  0  0  0  0  0  0
   -3.2032   -7.9568  -20.1570 C   0  0  0  0  0  0  0  0  0  0  0  0
   -1.1691   -8.2227  -19.0439 C   0  0  0  0  0  0  0  0  0  0  0  0
   -3.1833   -7.9932  -17.7869 C   0  0  0  0  0  0  0  0  0  0  0  0
   -3.8721   -7.8898  -18.9850 C   0  0  0  0  0  0  0  0  0  0  0  0
   -5.2775   -7.6970  -20.5625 C   0  0  0  0  0  0  0  0  0  0  0  0
   -5.6793   -2.9811  -21.9013 C   0  0  0  0  0  0  0  0  0  0  0  0
   -6.0106   -3.0328  -20.4189 C   0  0  2  0  0  0  0  0  0  0  0  0
   -7.0907   -2.0253  -20.1168 C   0  0  2  0  0  0  0  0  0  0  0  0
   -6.5923   -1.2805  -18.9223 C   0  0  1  0  0  0  0  0  0  0  0  0
   -5.1089   -1.6225  -18.8728 C   0  0  1  0  0  0  0  0  0  0  0  0
   -3.3796    0.1666  -18.5713 C   0  0  0  0  0  0  0  0  0  0  0  0
   -2.1444    0.8143  -16.7066 C   0  0  0  0  0  0  0  0  0  0  0  0
   -1.8379    1.9510  -18.7818 C   0  0  0  0  0  0  0  0  0  0  0  0
   -2.7882    1.1060  -19.3379 C   0  0  0  0  0  0  0  0  0  0  0  0
   -4.1605    0.0318  -20.5495 C   0  0  0  0  0  0  0  0  0  0  0  0
   -7.5833    2.9011  -18.6771 C   0  0  0  0  0  0  0  0  0  0  0  0
   -7.5097    3.0675  -20.1876 C   0  0  2  0  0  0  0  0  0  0  0  0
   -6.3200    3.9358  -20.5490 C   0  0  2  0  0  0  0  0  0  0  0  0
   -6.9443    5.1379  -21.2102 C   0  0  2  0  0  0  0  0  0  0  0  0
   -8.3153    4.6399  -21.5860 C   0  0  1  0  0  0  0  0  0  0  0  0
   -9.7341    6.4634  -20.5706 C   0  0  0  0  0  0  0  0  0  0  0  0
   -9.9627    7.2456  -18.3810 C   0  0  0  0  0  0  0  0  0  0  0  0
  -11.3171    8.1653  -20.1157 C   0  0  0  0  0  0  0  0  0  0  0  0
  -10.6824    7.3169  -21.0126 C   0  0  0  0  0  0  0  0  0  0  0  0
  -10.0029    6.1654  -22.6626 C   0  0  0  0  0  0  0  0  0  0  0  0
   -2.2806  -11.3184  -28.1971 C   0  0  1  0  0  0  0  0  0  0  0  0
   -3.5873  -12.0694  -28.0702 C   0  0  1  0  0  0  0  0  0  0  0  0
   -3.7478  -13.0568  -29.2141 C   0  0  0  0  0  0  0  0  0  0  0  0
   -1.6555   -9.9901  -26.2754 O   0  0  0  0  0  0  0  0  0  0  0  0
    0.7292   -8.9556  -26.6438 O   0  0  0  0  0  0  0  0  0  0  0  0
   -0.1508   -9.0075  -24.1566 O   0  0  0  0  0  0  0  0  0  0  0  0
   -2.5557   -8.3826  -22.9137 O   0  0  0  0  0  0  0  0  0  0  0  0
   -5.2422   -6.4224  -23.8624 O   0  0  0  0  0  0  0  0  0  0  0  0
   -7.1209   -5.5861  -22.2501 O   0  0  0  0  0  0  0  0  0  0  0  0
   -4.9476   -4.1122  -22.2710 O   0  0  0  0  0  0  0  0  0  0  0  0
   -4.8559   -2.7647  -19.6538 O   0  0  0  0  0  0  0  0  0  0  0  0
   -6.8055    0.0886  -19.0983 O   0  0  0  0  0  0  0  0  0  0  0  0
   -7.1276    0.7838  -16.5840 O   0  0  0  0  0  0  0  0  0  0  0  0
   -8.6292    2.0325  -18.3379 O   0  0  0  0  0  0  0  0  0  0  0  0
   -8.6981    3.6522  -20.6642 O   0  0  0  0  0  0  0  0  0  0  0  0
   -6.2466    5.5457  -22.3548 O   0  0  0  0  0  0  0  0  0  0  0  0
   -4.9809    7.6682  -23.2218 O   0  0  0  0  0  0  0  0  0  0  0  0
   -4.4022    6.9061  -20.7912 O   0  0  0  0  0  0  0  0  0  0  0  0
   -6.8222    8.1009  -21.4159 O   0  0  0  0  0  0  0  0  0  0  0  0
   -5.5047    3.2367  -21.4409 O   0  0  0  0  0  0  0  0  0  0  0  0
   -9.0898   -0.5921  -17.6474 O   0  0  0  0  0  0  0  0  0  0  0  0
   -8.2743   -2.6865  -19.8001 O   0  0  0  0  0  0  0  0  0  0  0  0
   -6.7248   -4.1675  -24.4009 O   0  0  0  0  0  0  0  0  0  0  0  0
   -3.2957   -6.1897  -25.5368 O   0  0  0  0  0  0  0  0  0  0  0  0
    0.7061  -11.2805  -25.4605 O   0  0  0  0  0  0  0  0  0  0  0  0
   -2.5222  -10.0338  -28.6917 O   0  0  0  0  0  0  0  0  0  0  0  0
   -3.5958  -12.7793  -26.8562 O   0  0  0  0  0  0  0  0  0  0  0  0
   -3.7215  -12.3956  -30.4376 O   0  0  0  0  0  0  0  0  0  0  0  0
   -3.2647  -12.9484  -32.9480 O   0  0  0  0  0  0  0  0  0  0  0  0
   -4.5243  -14.7878  -31.5921 O   0  0  0  0  0  0  0  0  0  0  0  0
   -1.8333  -14.2820  -31.2091 O   0  0  0  0  0  0  0  0  0  0  0  0
   -0.0749   -9.7906  -25.6681 P   0  0  1  0  0  0  0  0  0  0  0  0
   -6.0247   -5.0826  -23.1636 P   0  0  1  0  0  0  0  0  0  0  0  0
   -7.8828    0.5762  -17.8796 P   0  0  1  0  0  0  0  0  0  0  0  0
   -5.5996    7.0700  -21.9788 P   0  0  0  0  0  0  0  0  0  0  0  0
   -3.3344  -13.5854  -31.5817 P   0  0  0  0  0  0  0  0  0  0  0  0
  5 22  1  0
  6 33  1  0
 11 43  1  0
 16 53  1  0
 21  2  2  0
 22 23  2  0
 23  4  1  0
 24  3  1  0
 24  1  2  0
 25  5  1  0
 26  5  1  6
 26 27  1  0
 26 84  1  0
 27 61  1  1
 27 58  1  0
 28 63  1  0
 29 28  1  1
 29 30  1  0
 29 64  1  0
 30 31  1  0
 30 81  1  6
 31 32  1  0
 31 65  1  6
 32  6  1  1
 32 64  1  0
 34  7  2  0
 35  8  2  0
 35 10  1  0
 36  9  1  0
 36 33  2  0
 37  6  1  0
 38 67  1  0
 39 38  1  6
 39 40  1  0
 39 68  1  0
 40 41  1  0
 40 79  1  1
 41 42  1  0
 41 69  1  6
 42 11  1  6
 42 68  1  0
 44 12  2  0
 45 13  2  0
 45 15  1  0
 46 14  1  0
 46 43  2  0
 47 11  1  0
 48 71  1  0
 49 48  1  1
 49 50  1  0
 49 72  1  0
 50 51  1  0
 50 77  1  6
 51 52  1  0
 51 73  1  6
 52 16  1  1
 52 72  1  0
 54 17  2  0
 55 18  2  0
 55 20  1  0
 56 19  1  0
 56 53  2  0
 57 16  1  0
 58 83  1  1
 58 59  1  0
 59 84  1  0
 59 60  1  6
 60 85  1  0
 89 61  1  0
 89 63  1  0
 89 82  1  1
 90 65  1  0
 90 67  1  0
 90 80  1  6
 91 69  1  0
 91 71  1  0
 91 78  1  1
 92 73  1  0
 92 75  1  0
 92 76  1  0
 93 85  1  0
 93 87  1  0
 93 88  1  0
 21  1  1  0
 22  2  1  0
 23 24  1  0
 25  4  2  0
 33  7  1  0
 34  8  1  0
 35 36  1  0
 37  9  2  0
 43 12  1  0
 44 13  1  0
 45 46  1  0
 47 14  2  0
 53 17  1  0
 54 18  1  0
 55 56  1  0
 57 19  2  0
 89 62  2  0
 90 66  2  0
 91 70  2  0
 92 74  2  0
 93 86  2  0
M  END
>  <rmsd>  (7) 
0.651209533

$$$$
CHEMBL374267 PubChem-44413910
     RDKit          3D

 93104  0  0  0  0  0  0  0  0999 V2000
   -3.1250  -18.5892  -22.7840 N   0  0  0  0  0  0  0  0  0  0  0  0
   -4.5245  -18.3953  -20.8644 N   0  0  0  0  0  0  0  0  0  0  0  0
   -3.8941  -17.9464  -24.9911 N   0  0  0  0  0  0  0  0  0  0  0  0
   -6.4372  -17.2611  -23.5657 N   0  0  0  0  0  0  0  0  0  0  0  0
   -6.7206  -17.5052  -21.3322 N   0  0  0  0  0  0  0  0  0  0  0  0
   -2.4575  -12.8803  -19.0940 N   0  0  0  0  0  0  0  0  0  0  0  0
   -3.2582  -14.4589  -20.7495 N   0  0  0  0  0  0  0  0  0  0  0  0
   -1.5285  -15.4463  -22.0491 N   0  0  0  0  0  0  0  0  0  0  0  0
   -0.2586  -13.0590  -19.5882 N   0  0  0  0  0  0  0  0  0  0  0  0
    0.8086  -14.9010  -21.7034 N   0  0  0  0  0  0  0  0  0  0  0  0
   -7.7598   -5.2940  -18.7369 N   0  0  0  0  0  0  0  0  0  0  0  0
   -5.4873   -4.8961  -18.0168 N   0  0  0  0  0  0  0  0  0  0  0  0
   -5.3120   -3.5657  -16.0530 N   0  0  0  0  0  0  0  0  0  0  0  0
   -8.7713   -4.1324  -17.0752 N   0  0  0  0  0  0  0  0  0  0  0  0
   -7.2768   -2.7060  -14.9128 N   0  0  0  0  0  0  0  0  0  0  0  0
   -3.8970    0.6565  -18.1511 N   0  0  0  0  0  0  0  0  0  0  0  0
   -1.9947   -0.4285  -17.1292 N   0  0  0  0  0  0  0  0  0  0  0  0
   -0.0009    0.8655  -17.1809 N   0  0  0  0  0  0  0  0  0  0  0  0
   -2.8317    2.5541  -18.7784 N   0  0  0  0  0  0  0  0  0  0  0  0
    0.0541    3.0834  -18.1718 N   0  0  0  0  0  0  0  0  0  0  0  0
   -3.3287  -18.7377  -21.4326 C   0  0  0  0  0  0  0  0  0  0  0  0
   -5.4857  -17.8944  -21.6722 C   0  0  0  0  0  0  0  0  0  0  0  0
   -5.3131  -17.7403  -23.0029 C   0  0  0  0  0  0  0  0  0  0  0  0
   -4.1074  -18.0963  -23.5934 C   0  0  0  0  0  0  0  0  0  0  0  0
   -7.2953  -17.1424  -22.5107 C   0  0  0  0  0  0  0  0  0  0  0  0
   -7.3623  -17.6821  -20.0327 C   0  0  1  0  0  0  0  0  0  0  0  0
   -8.3094  -16.5309  -19.7108 C   0  0  1  0  0  0  0  0  0  0  0  0
   -6.7360  -13.8727  -19.6338 C   0  0  0  0  0  0  0  0  0  0  0  0
   -5.8706  -12.8234  -18.9364 C   0  0  2  0  0  0  0  0  0  0  0  0
   -5.5216  -11.6399  -19.8311 C   0  0  1  0  0  0  0  0  0  0  0  0
   -4.2173  -11.1734  -19.2442 C   0  0  2  0  0  0  0  0  0  0  0  0
   -3.6958  -12.3913  -18.4950 C   0  0  1  0  0  0  0  0  0  0  0  0
   -2.2978  -13.7851  -20.0652 C   0  0  0  0  0  0  0  0  0  0  0  0
   -2.8583  -15.3000  -21.7480 C   0  0  0  0  0  0  0  0  0  0  0  0
   -0.5693  -14.7514  -21.3679 C   0  0  0  0  0  0  0  0  0  0  0  0
   -0.9837  -13.8943  -20.3559 C   0  0  0  0  0  0  0  0  0  0  0  0
   -1.2049  -12.4398  -18.8258 C   0  0  0  0  0  0  0  0  0  0  0  0
   -4.7096   -8.1026  -20.5446 C   0  0  0  0  0  0  0  0  0  0  0  0
   -5.9918   -7.3453  -20.8718 C   0  0  2  0  0  0  0  0  0  0  0  0
   -5.7691   -5.9896  -21.5222 C   0  0  1  0  0  0  0  0  0  0  0  0
   -6.9319   -5.1843  -21.0332 C   0  0  2  0  0  0  0  0  0  0  0  0
   -7.5804   -6.0544  -19.9678 C   0  0  1  0  0  0  0  0  0  0  0  0
   -6.8322   -4.7872  -17.9174 C   0  0  0  0  0  0  0  0  0  0  0  0
   -4.7238   -4.2725  -17.0692 C   0  0  0  0  0  0  0  0  0  0  0  0
   -6.6697   -3.4612  -15.9600 C   0  0  0  0  0  0  0  0  0  0  0  0
   -7.4350   -4.1019  -16.9246 C   0  0  0  0  0  0  0  0  0  0  0  0
   -8.9357   -4.8759  -18.2108 C   0  0  0  0  0  0  0  0  0  0  0  0
   -6.6242   -2.0858  -20.5311 C   0  0  0  0  0  0  0  0  0  0  0  0
   -6.3149   -1.6547  -19.1057 C   0  0  2  0  0  0  0  0  0  0  0  0
   -7.1958   -0.5030  -18.6814 C   0  0  2  0  0  0  0  0  0  0  0  0
   -6.3001    0.2947  -17.7666 C   0  0  2  0  0  0  0  0  0  0  0  0
   -4.9363   -0.3466  -17.9423 C   0  0  1  0  0  0  0  0  0  0  0  0
   -2.6156    0.5903  -17.7694 C   0  0  0  0  0  0  0  0  0  0  0  0
   -0.6680   -0.2847  -16.8345 C   0  0  0  0  0  0  0  0  0  0  0  0
   -0.6402    1.8934  -17.8223 C   0  0  0  0  0  0  0  0  0  0  0  0
   -1.9819    1.7268  -18.1325 C   0  0  0  0  0  0  0  0  0  0  0  0
   -4.0024    1.8574  -18.7840 C   0  0  0  0  0  0  0  0  0  0  0  0
   -9.6690  -17.1349  -19.9028 C   0  0  2  0  0  0  0  0  0  0  0  0
   -9.3944  -18.6222  -19.7033 C   0  0  1  0  0  0  0  0  0  0  0  0
  -10.3499  -19.5436  -20.4605 C   0  0  0  0  0  0  0  0  0  0  0  0
   -8.1273  -16.1768  -18.3675 O   0  0  0  0  0  0  0  0  0  0  0  0
   -8.1661  -14.0226  -16.8869 O   0  0  0  0  0  0  0  0  0  0  0  0
   -8.0932  -13.5637  -19.4685 O   0  0  0  0  0  0  0  0  0  0  0  0
   -4.6727  -13.4096  -18.4760 O   0  0  0  0  0  0  0  0  0  0  0  0
   -4.4694  -10.1494  -18.3300 O   0  0  0  0  0  0  0  0  0  0  0  0
   -2.7646   -8.4533  -17.3249 O   0  0  0  0  0  0  0  0  0  0  0  0
   -4.1241   -7.5947  -19.3787 O   0  0  0  0  0  0  0  0  0  0  0  0
   -6.7889   -7.1886  -19.7245 O   0  0  0  0  0  0  0  0  0  0  0  0
   -7.8394   -4.9596  -22.0715 O   0  0  0  0  0  0  0  0  0  0  0  0
   -9.4315   -3.0120  -22.7273 O   0  0  0  0  0  0  0  0  0  0  0  0
   -7.9355   -2.5497  -20.6384 O   0  0  0  0  0  0  0  0  0  0  0  0
   -4.9803   -1.2338  -19.0281 O   0  0  0  0  0  0  0  0  0  0  0  0
   -6.6972    0.2078  -16.4290 O   0  0  0  0  0  0  0  0  0  0  0  0
   -7.8090    1.7880  -14.6711 O   0  0  0  0  0  0  0  0  0  0  0  0
   -7.7270    2.7035  -17.1242 O   0  0  0  0  0  0  0  0  0  0  0  0
   -5.4539    2.5185  -15.5463 O   0  0  0  0  0  0  0  0  0  0  0  0
   -8.3312   -0.9865  -18.0197 O   0  0  0  0  0  0  0  0  0  0  0  0
   -6.9127   -2.6310  -23.2514 O   0  0  0  0  0  0  0  0  0  0  0  0
   -4.5932   -5.3820  -21.0813 O   0  0  0  0  0  0  0  0  0  0  0  0
   -2.0650   -9.4324  -19.6441 O   0  0  0  0  0  0  0  0  0  0  0  0
   -5.3005  -12.0478  -21.1500 O   0  0  0  0  0  0  0  0  0  0  0  0
  -10.3488  -14.5433  -18.2106 O   0  0  0  0  0  0  0  0  0  0  0  0
  -10.1085  -16.8511  -21.1988 O   0  0  0  0  0  0  0  0  0  0  0  0
   -8.0552  -18.9076  -20.0255 O   0  0  0  0  0  0  0  0  0  0  0  0
  -10.0616  -19.5306  -21.8282 O   0  0  0  0  0  0  0  0  0  0  0  0
  -10.5783  -20.9690  -23.9544 O   0  0  0  0  0  0  0  0  0  0  0  0
  -12.4909  -20.8383  -22.1744 O   0  0  0  0  0  0  0  0  0  0  0  0
  -10.1789  -22.2949  -21.7275 O   0  0  0  0  0  0  0  0  0  0  0  0
   -8.6544  -14.5643  -18.2066 P   0  0  1  0  0  0  0  0  0  0  0  0
   -3.3390   -8.9109  -18.6508 P   0  0  2  0  0  0  0  0  0  0  0  0
   -8.0518   -3.2787  -22.1728 P   0  0  1  0  0  0  0  0  0  0  0  0
   -6.9461    1.8014  -15.9163 P   0  0  0  0  0  0  0  0  0  0  0  0
  -10.8203  -20.9108  -22.4612 P   0  0  0  0  0  0  0  0  0  0  0  0
  5 22  1  0
  6 33  1  0
 11 43  1  0
 16 53  1  0
 21  2  2  0
 22 23  2  0
 23  4  1  0
 24  3  1  0
 24  1  2  0
 25  5  1  0
 26  5  1  6
 26 27  1  0
 26 84  1  0
 27 61  1  1
 27 58  1  0
 28 63  1  0
 29 28  1  6
 29 30  1  0
 29 64  1  0
 30 31  1  0
 30 81  1  6
 31 32  1  0
 31 65  1  1
 32  6  1  6
 32 64  1  0
 34  7  2  0
 35  8  2  0
 35 10  1  0
 36  9  1  0
 36 33  2  0
 37  6  1  0
 38 67  1  0
 39 38  1  1
 39 40  1  0
 39 68  1  0
 40 41  1  0
 40 79  1  1
 41 42  1  0
 41 69  1  6
 42 11  1  1
 42 68  1  0
 44 12  2  0
 45 13  2  0
 45 15  1  0
 46 14  1  0
 46 43  2  0
 47 11  1  0
 48 71  1  0
 49 48  1  6
 49 50  1  0
 49 72  1  0
 50 51  1  0
 50 77  1  1
 51 52  1  0
 51 73  1  1
 52 16  1  6
 52 72  1  0
 54 17  2  0
 55 18  2  0
 55 20  1  0
 56 19  1  0
 56 53  2  0
 57 16  1  0
 58 83  1  6
 58 59  1  0
 59 84  1  0
 59 60  1  6
 60 85  1  0
 89 61  1  0
 89 63  1  0
 89 82  1  1
 90 65  1  0
 90 67  1  0
 90 80  1  6
 91 69  1  0
 91 71  1  0
 91 78  1  6
 92 73  1  0
 92 75  1  0
 92 76  1  0
 93 85  1  0
 93 87  1  0
 93 88  1  0
 21  1  1  0
 22  2  1  0
 23 24  1  0
 25  4  2  0
 33  7  1  0
 34  8  1  0
 35 36  1  0
 37  9  2  0
 43 12  1  0
 44 13  1  0
 45 46  1  0
 47 14  2  0
 53 17  1  0
 54 18  1  0
 55 56  1  0
 57 19  2  0
 89 62  2  0
 90 66  2  0
 91 70  2  0
 92 74  2  0
 93 86  2  0
M  END
>  <rmsd>  (8) 
0.723830342

$$$$
CHEMBL254869 PubChem-123756
     RDKit          3D

 41 44  0  0  0  0  0  0  0  0999 V2000
   -4.3161    2.5165  -15.9745 C   0  0  0  0  0  0  0  0  0  0  0  0
   -3.2619    0.8954  -17.6238 C   0  0  0  0  0  0  0  0  0  0  0  0
   -2.0256    1.5543  -17.5244 C   0  0  0  0  0  0  0  0  0  0  0  0
   -0.9223    1.1172  -18.2573 C   0  0  0  0  0  0  0  0  0  0  0  0
   -1.0410    0.0143  -19.1009 C   0  0  0  0  0  0  0  0  0  0  0  0
   -2.2627   -0.6508  -19.2101 C   0  0  0  0  0  0  0  0  0  0  0  0
   -3.3853   -0.2274  -18.4801 C   0  0  0  0  0  0  0  0  0  0  0  0
   -4.6532   -0.9792  -18.6422 C   0  0  0  0  0  0  0  0  0  0  0  0
   -7.0376   -1.3010  -18.0553 C   0  0  1  0  0  0  0  0  0  0  0  0
   -7.9831   -0.9550  -16.9365 C   0  0  2  0  0  0  0  0  0  0  0  0
   -8.9009    0.0669  -17.5587 C   0  0  2  0  0  0  0  0  0  0  0  0
   -7.7493   -0.7850  -19.2959 C   0  0  1  0  0  0  0  0  0  0  0  0
   -7.9921   -1.9131  -20.2907 C   0  0  0  0  0  0  0  0  0  0  0  0
  -10.8760    0.9733  -16.2946 C   0  0  0  0  0  0  0  0  0  0  0  0
  -12.2201   -0.6714  -16.3230 C   0  0  0  0  0  0  0  0  0  0  0  0
  -11.0959   -1.0335  -16.9759 C   0  0  0  0  0  0  0  0  0  0  0  0
  -11.9600   -3.1548  -17.4137 C   0  0  0  0  0  0  0  0  0  0  0  0
  -13.2685   -1.5718  -16.1989 C   0  0  0  0  0  0  0  0  0  0  0  0
   -4.3809    1.3670  -16.8636 N   0  0  0  0  0  0  0  0  0  0  0  0
  -10.2318   -0.0116  -16.9694 N   0  0  0  0  0  0  0  0  0  0  0  0
  -12.1178    0.5945  -15.8764 N   0  0  0  0  0  0  0  0  0  0  0  0
  -10.9325   -2.2595  -17.5301 N   0  0  0  0  0  0  0  0  0  0  0  0
  -13.1136   -2.8103  -16.7543 N   0  0  0  0  0  0  0  0  0  0  0  0
  -14.4694   -1.2254  -15.5180 N   0  0  0  0  0  0  0  0  0  0  0  0
   -4.7027   -1.9515  -19.4462 O   0  0  0  0  0  0  0  0  0  0  0  0
   -5.7904   -0.6272  -17.9094 O   0  0  0  0  0  0  0  0  0  0  0  0
   -7.3219   -0.4081  -15.8338 O   0  0  0  0  0  0  0  0  0  0  0  0
   -8.9683   -0.1754  -18.9402 O   0  0  0  0  0  0  0  0  0  0  0  0
   -8.9170   -2.8311  -19.7818 O   0  0  0  0  0  0  0  0  0  0  0  0
   -7.9432   -4.7020  -21.3329 O   0  0  0  0  0  0  0  0  0  0  0  0
   -9.1873   -5.4911  -19.1700 O   0  0  0  0  0  0  0  0  0  0  0  0
   -6.6739   -4.2793  -19.0484 O   0  0  0  0  0  0  0  0  0  0  0  0
   -5.8227   -6.3277  -20.4775 O   0  0  0  0  0  0  0  0  0  0  0  0
   -6.9866   -6.9037  -18.1946 O   0  0  0  0  0  0  0  0  0  0  0  0
   -4.4605   -5.7262  -18.3151 O   0  0  0  0  0  0  0  0  0  0  0  0
   -2.4483   -7.2369  -17.6131 O   0  0  0  0  0  0  0  0  0  0  0  0
   -4.7927   -8.0489  -16.8204 O   0  0  0  0  0  0  0  0  0  0  0  0
   -3.9894   -8.2381  -19.4595 O   0  0  0  0  0  0  0  0  0  0  0  0
   -8.1615   -4.3467  -19.8779 P   0  0  2  0  0  0  0  0  0  0  0  0
   -5.9897   -5.8382  -19.0550 P   0  0  2  0  0  0  0  0  0  0  0  0
   -3.8938   -7.3088  -18.0480 P   0  0  0  0  0  0  0  0  0  0  0  0
  1 19  1  0
  3  4  2  0
  5  6  2  0
  7  8  1  0
  7  2  2  0
  8 26  1  0
  9 26  1  1
  9 10  1  0
 10 27  1  1
 10 11  1  0
 11 28  1  0
 11 20  1  1
 12 28  1  0
 12 13  1  6
 12  9  1  0
 13 29  1  0
 15 21  1  0
 16 22  2  0
 16 20  1  0
 17 23  2  0
 18 24  1  0
 18 15  2  0
 19  2  1  0
 20 14  1  0
 39 29  1  0
 39 31  1  1
 39 32  1  0
 40 32  1  0
 40 34  1  1
 40 35  1  0
 41 35  1  0
 41 37  1  0
 41 38  1  0
  2  3  1  0
  4  5  1  0
  6  7  1  0
  8 25  2  0
 14 21  2  0
 15 16  1  0
 17 22  1  0
 18 23  1  0
 39 30  2  0
 40 33  2  0
 41 36  2  0
M  END
>  <rmsd>  (9) 
0.76006794

$$$$
CHEMBL439290 PubChem-44413848
     RDKit          3D

 93104  0  0  0  0  0  0  0  0999 V2000
  -10.9599   -4.6230  -20.1461 N   0  0  0  0  0  0  0  0  0  0  0  0
   -9.2893   -4.7215  -18.4552 N   0  0  0  0  0  0  0  0  0  0  0  0
  -10.4750   -5.1821  -22.4538 N   0  0  0  0  0  0  0  0  0  0  0  0
   -7.7122   -5.6875  -21.4293 N   0  0  0  0  0  0  0  0  0  0  0  0
   -7.1082   -5.3900  -19.2635 N   0  0  0  0  0  0  0  0  0  0  0  0
   -1.3677   -1.1848  -17.9624 N   0  0  0  0  0  0  0  0  0  0  0  0
   -1.1276    0.7746  -19.3536 N   0  0  0  0  0  0  0  0  0  0  0  0
   -2.2535    2.6965  -18.5119 N   0  0  0  0  0  0  0  0  0  0  0  0
   -2.6756   -0.2397  -16.3734 N   0  0  0  0  0  0  0  0  0  0  0  0
   -3.5186    2.6316  -16.4424 N   0  0  0  0  0  0  0  0  0  0  0  0
    8.9127   -1.1806  -19.4773 N   0  0  0  0  0  0  0  0  0  0  0  0
    7.9933    0.1992  -17.7166 N   0  0  0  0  0  0  0  0  0  0  0  0
    8.9470    2.3761  -17.6038 N   0  0  0  0  0  0  0  0  0  0  0  0
   10.3917    0.3409  -20.2675 N   0  0  0  0  0  0  0  0  0  0  0  0
   10.6819    3.0943  -19.1368 N   0  0  0  0  0  0  0  0  0  0  0  0
   14.2113   -7.5660  -14.9958 N   0  0  0  0  0  0  0  0  0  0  0  0
   14.3808   -6.2726  -17.0304 N   0  0  0  0  0  0  0  0  0  0  0  0
   16.3754   -6.6746  -18.2624 N   0  0  0  0  0  0  0  0  0  0  0  0
   16.1809   -8.6590  -15.2007 N   0  0  0  0  0  0  0  0  0  0  0  0
   18.0517   -8.2560  -17.5085 N   0  0  0  0  0  0  0  0  0  0  0  0
  -10.5796   -4.4764  -18.8344 C   0  0  0  0  0  0  0  0  0  0  0  0
   -8.4078   -5.1054  -19.4115 C   0  0  0  0  0  0  0  0  0  0  0  0
   -8.7609   -5.2645  -20.7038 C   0  0  0  0  0  0  0  0  0  0  0  0
  -10.0686   -5.0225  -21.1000 C   0  0  0  0  0  0  0  0  0  0  0  0
   -6.7107   -5.7668  -20.5071 C   0  0  0  0  0  0  0  0  0  0  0  0
   -6.3443   -5.4782  -18.0148 C   0  0  1  0  0  0  0  0  0  0  0  0
   -4.8551   -5.3052  -18.2657 C   0  0  1  0  0  0  0  0  0  0  0  0
   -1.3755   -5.5328  -18.1016 C   0  0  0  0  0  0  0  0  0  0  0  0
   -0.4981   -4.3939  -18.5842 C   0  0  2  0  0  0  0  0  0  0  0  0
    0.4059   -3.9268  -17.4752 C   0  0  2  0  0  0  0  0  0  0  0  0
    0.6902   -2.5059  -17.8737 C   0  0  2  0  0  0  0  0  0  0  0  0
   -0.5423   -2.1430  -18.6896 C   0  0  1  0  0  0  0  0  0  0  0  0
   -1.6033    0.0893  -18.2863 C   0  0  0  0  0  0  0  0  0  0  0  0
   -1.4650    2.0967  -19.4646 C   0  0  0  0  0  0  0  0  0  0  0  0
   -2.7276    1.9930  -17.4409 C   0  0  0  0  0  0  0  0  0  0  0  0
   -2.3835    0.6520  -17.3414 C   0  0  0  0  0  0  0  0  0  0  0  0
   -2.0328   -1.3685  -16.7915 C   0  0  0  0  0  0  0  0  0  0  0  0
    4.9094   -2.0346  -17.8896 C   0  0  0  0  0  0  0  0  0  0  0  0
    6.0360   -2.8215  -18.5461 C   0  0  2  0  0  0  0  0  0  0  0  0
    6.9964   -3.2622  -17.4676 C   0  0  2  0  0  0  0  0  0  0  0  0
    8.3603   -3.1092  -18.0933 C   0  0  2  0  0  0  0  0  0  0  0  0
    8.0868   -2.3769  -19.3913 C   0  0  1  0  0  0  0  0  0  0  0  0
    8.8431   -0.0683  -18.7390 C   0  0  0  0  0  0  0  0  0  0  0  0
    8.0560    1.4382  -17.1420 C   0  0  0  0  0  0  0  0  0  0  0  0
    9.7957    2.0991  -18.6353 C   0  0  0  0  0  0  0  0  0  0  0  0
    9.7238    0.8390  -19.2119 C   0  0  0  0  0  0  0  0  0  0  0  0
    9.8647   -0.9117  -20.4078 C   0  0  0  0  0  0  0  0  0  0  0  0
   10.2216   -6.1437  -16.4024 C   0  0  0  0  0  0  0  0  0  0  0  0
   10.8903   -6.4767  -15.0759 C   0  0  2  0  0  0  0  0  0  0  0  0
   11.5076   -5.2342  -14.4609 C   0  0  2  0  0  0  0  0  0  0  0  0
   12.9530   -5.6053  -14.2778 C   0  0  2  0  0  0  0  0  0  0  0  0
   12.9496   -7.1074  -14.4263 C   0  0  1  0  0  0  0  0  0  0  0  0
   14.8081   -7.1911  -16.1317 C   0  0  0  0  0  0  0  0  0  0  0  0
   15.1812   -6.0188  -18.1106 C   0  0  0  0  0  0  0  0  0  0  0  0
   16.8047   -7.5889  -17.3439 C   0  0  0  0  0  0  0  0  0  0  0  0
   15.9852   -7.8433  -16.2535 C   0  0  0  0  0  0  0  0  0  0  0  0
   15.0642   -8.4651  -14.4428 C   0  0  0  0  0  0  0  0  0  0  0  0
   -4.5704   -3.9103  -17.8062 C   0  0  2  0  0  0  0  0  0  0  0  0
   -5.6852   -3.6704  -16.8064 C   0  0  1  0  0  0  0  0  0  0  0  0
   -6.1104   -2.2071  -16.6763 C   0  0  0  0  0  0  0  0  0  0  0  0
   -4.1489   -6.2152  -17.4722 O   0  0  0  0  0  0  0  0  0  0  0  0
   -4.0553   -7.6703  -19.6657 O   0  0  0  0  0  0  0  0  0  0  0  0
   -1.9639   -6.1693  -19.1948 O   0  0  0  0  0  0  0  0  0  0  0  0
   -1.2905   -3.3038  -18.9814 O   0  0  0  0  0  0  0  0  0  0  0  0
    1.8182   -2.4460  -18.7088 O   0  0  0  0  0  0  0  0  0  0  0  0
    2.0373    0.1605  -18.8846 O   0  0  0  0  0  0  0  0  0  0  0  0
    4.2667   -1.2011  -18.8143 O   0  0  0  0  0  0  0  0  0  0  0  0
    6.7311   -2.0134  -19.4623 O   0  0  0  0  0  0  0  0  0  0  0  0
    8.9595   -4.3483  -18.3588 O   0  0  0  0  0  0  0  0  0  0  0  0
   11.4102   -3.7496  -19.0615 O   0  0  0  0  0  0  0  0  0  0  0  0
   11.1643   -5.6971  -17.3383 O   0  0  0  0  0  0  0  0  0  0  0  0
   11.8797   -7.4639  -15.2624 O   0  0  0  0  0  0  0  0  0  0  0  0
   13.4587   -5.2148  -13.0326 O   0  0  0  0  0  0  0  0  0  0  0  0
   15.1543   -3.3981  -12.2137 O   0  0  0  0  0  0  0  0  0  0  0  0
   14.7091   -3.4366  -14.7897 O   0  0  0  0  0  0  0  0  0  0  0  0
   16.1763   -5.4084  -13.5329 O   0  0  0  0  0  0  0  0  0  0  0  0
   10.8844   -4.9595  -13.2414 O   0  0  0  0  0  0  0  0  0  0  0  0
   10.7530   -3.0617  -16.6252 O   0  0  0  0  0  0  0  0  0  0  0  0
    6.7320   -4.5783  -17.0808 O   0  0  0  0  0  0  0  0  0  0  0  0
    2.6708   -0.8609  -16.5643 O   0  0  0  0  0  0  0  0  0  0  0  0
    1.5728   -4.6984  -17.4295 O   0  0  0  0  0  0  0  0  0  0  0  0
   -2.5100   -8.4208  -17.6949 O   0  0  0  0  0  0  0  0  0  0  0  0
   -4.6694   -3.0475  -18.9001 O   0  0  0  0  0  0  0  0  0  0  0  0
   -6.7844   -4.5004  -17.1002 O   0  0  0  0  0  0  0  0  0  0  0  0
   -7.0220   -1.8667  -17.6837 O   0  0  0  0  0  0  0  0  0  0  0  0
   -7.8964   -0.0894  -15.9416 O   0  0  0  0  0  0  0  0  0  0  0  0
   -6.1205    0.7521  -17.6870 O   0  0  0  0  0  0  0  0  0  0  0  0
   -8.7238    0.1742  -18.4151 O   0  0  0  0  0  0  0  0  0  0  0  0
   -3.1988   -7.1281  -18.5458 P   0  0  1  0  0  0  0  0  0  0  0  0
    2.6762   -1.0534  -18.2488 P   0  0  2  0  0  0  0  0  0  0  0  0
   10.5847   -4.1958  -17.8761 P   0  0  2  0  0  0  0  0  0  0  0  0
   14.8766   -4.3380  -13.3646 P   0  0  0  0  0  0  0  0  0  0  0  0
   -7.4509   -0.2560  -17.3829 P   0  0  0  0  0  0  0  0  0  0  0  0
  5 22  1  0
  6 33  1  0
 11 43  1  0
 16 53  1  0
 21  2  2  0
 22 23  2  0
 23  4  1  0
 24  3  1  0
 24  1  2  0
 25  5  1  0
 26  5  1  6
 26 27  1  0
 26 84  1  0
 27 61  1  1
 27 58  1  0
 28 63  1  0
 29 28  1  1
 29 30  1  0
 29 64  1  0
 30 31  1  0
 30 81  1  6
 31 32  1  0
 31 65  1  6
 32  6  1  1
 32 64  1  0
 34  7  2  0
 35  8  2  0
 35 10  1  0
 36  9  1  0
 36 33  2  0
 37  6  1  0
 38 67  1  0
 39 38  1  1
 39 40  1  0
 39 68  1  0
 40 41  1  0
 40 79  1  6
 41 42  1  0
 41 69  1  6
 42 11  1  1
 42 68  1  0
 44 12  2  0
 45 13  2  0
 45 15  1  0
 46 14  1  0
 46 43  2  0
 47 11  1  0
 48 71  1  0
 49 48  1  6
 49 50  1  0
 49 72  1  0
 50 51  1  0
 50 77  1  1
 51 52  1  0
 51 73  1  1
 52 16  1  6
 52 72  1  0
 54 17  2  0
 55 18  2  0
 55 20  1  0
 56 19  1  0
 56 53  2  0
 57 16  1  0
 58 83  1  6
 58 59  1  0
 59 84  1  0
 59 60  1  6
 60 85  1  0
 89 61  1  0
 89 63  1  0
 89 82  1  1
 90 65  1  0
 90 67  1  0
 90 80  1  1
 91 69  1  0
 91 71  1  0
 91 78  1  1
 92 73  1  0
 92 75  1  0
 92 76  1  0
 93 85  1  0
 93 87  1  0
 93 88  1  0
 21  1  1  0
 22  2  1  0
 23 24  1  0
 25  4  2  0
 33  7  1  0
 34  8  1  0
 35 36  1  0
 37  9  2  0
 43 12  1  0
 44 13  1  0
 45 46  1  0
 47 14  2  0
 53 17  1  0
 54 18  1  0
 55 56  1  0
 57 19  2  0
 89 62  2  0
 90 66  2  0
 91 70  2  0
 92 74  2  0
 93 86  2  0
M  END
>  <rmsd>  (10) 
0.658747017

$$$$
CHEMBL404038 PubChem-131885181 PubChem-503593
     RDKit          3D

 75 83  0  0  0  0  0  0  0  0999 V2000
   -7.7451    4.3767  -19.4979 O   0  0  0  0  0  0  0  0  0  0  0  0
   -5.4248    5.5112  -18.1296 O   0  0  0  0  0  0  0  0  0  0  0  0
   -4.5369    4.6672  -15.0863 O   0  0  0  0  0  0  0  0  0  0  0  0
   -7.0934    4.2732  -15.2793 O   0  0  0  0  0  0  0  0  0  0  0  0
  -10.3193    3.9003  -19.2847 O   0  0  0  0  0  0  0  0  0  0  0  0
   -8.7327    2.2357  -18.0264 O   0  0  0  0  0  0  0  0  0  0  0  0
   -5.8409   -1.5773  -18.7012 O   0  0  0  0  0  0  0  0  0  0  0  0
   -4.4812   -2.8512  -20.5272 O   0  0  0  0  0  0  0  0  0  0  0  0
   -6.3822   -4.2186  -19.3313 O   0  0  0  0  0  0  0  0  0  0  0  0
   -8.3710   -9.2232  -20.3544 O   0  0  0  0  0  0  0  0  0  0  0  0
   -7.0985  -11.2617  -21.4055 O   0  0  0  0  0  0  0  0  0  0  0  0
   -8.4471  -11.7844  -19.2354 O   0  0  0  0  0  0  0  0  0  0  0  0
  -10.4270  -10.2165  -18.5396 O   0  0  0  0  0  0  0  0  0  0  0  0
   -9.8109  -12.0967  -16.8431 O   0  0  0  0  0  0  0  0  0  0  0  0
   -7.3648  -13.1243  -16.8974 O   0  0  0  0  0  0  0  0  0  0  0  0
   -8.9665  -14.0022  -15.0380 O   0  0  0  0  0  0  0  0  0  0  0  0
   -7.8914  -11.4711  -14.9303 O   0  0  0  0  0  0  0  0  0  0  0  0
   -8.2114   -9.8397  -17.2132 O   0  0  0  0  0  0  0  0  0  0  0  0
   -6.0979  -10.3277  -19.1815 O   0  0  0  0  0  0  0  0  0  0  0  0
   -6.8187   -7.3879  -18.8553 O   0  0  0  0  0  0  0  0  0  0  0  0
   -7.1725   -5.2075  -21.5958 O   0  0  0  0  0  0  0  0  0  0  0  0
   -4.0084   -3.5447  -18.0480 O   0  0  0  0  0  0  0  0  0  0  0  0
   -6.4105    0.3699  -16.6540 O   0  0  0  0  0  0  0  0  0  0  0  0
   -9.5659   -0.1509  -17.6301 O   0  0  0  0  0  0  0  0  0  0  0  0
   -8.9626    2.2749  -20.8047 O   0  0  0  0  0  0  0  0  0  0  0  0
   -7.7753    5.0553  -18.2762 C   0  0  0  0  0  0  0  0  0  0  0  0
   -6.4809    4.8149  -17.5190 C   0  0  2  0  0  0  0  0  0  0  0  0
   -6.6140    5.2962  -16.1009 C   0  0  2  0  0  0  0  0  0  0  0  0
   -5.2112    5.7008  -15.7424 C   0  0  2  0  0  0  0  0  0  0  0  0
   -4.5607    5.9256  -17.0949 C   0  0  2  0  0  0  0  0  0  0  0  0
   -2.9637    7.8470  -17.3864 C   0  0  0  0  0  0  0  0  0  0  0  0
   -4.2806    9.5054  -17.5376 C   0  0  0  0  0  0  0  0  0  0  0  0
   -4.9027   10.7381  -17.6689 C   0  0  0  0  0  0  0  0  0  0  0  0
   -7.0030    9.6237  -17.4556 C   0  0  0  0  0  0  0  0  0  0  0  0
   -5.0242    8.3915  -17.3695 C   0  0  0  0  0  0  0  0  0  0  0  0
   -7.7799    1.2796  -18.4022 C   0  0  2  0  0  0  0  0  0  0  0  0
   -8.2540   -0.1225  -18.1142 C   0  0  1  0  0  0  0  0  0  0  0  0
   -7.3124   -0.6366  -17.0507 C   0  0  1  0  0  0  0  0  0  0  0  0
   -6.5635   -1.8695  -17.5400 C   0  0  0  0  0  0  0  0  0  0  0  0
   -5.7313   -5.4079  -19.6790 C   0  0  2  0  0  0  0  0  0  0  0  0
   -6.4360   -6.1001  -20.8120 C   0  0  1  0  0  0  0  0  0  0  0  0
   -7.3510   -7.0761  -20.1202 C   0  0  1  0  0  0  0  0  0  0  0  0
   -7.4683   -8.3414  -20.9536 C   0  0  0  0  0  0  0  0  0  0  0  0
   -5.8700   -6.3943  -18.5366 C   0  0  2  0  0  0  0  0  0  0  0  0
   -3.9151   -6.9401  -17.0553 C   0  0  0  0  0  0  0  0  0  0  0  0
   -2.7288   -8.1799  -18.3086 C   0  0  0  0  0  0  0  0  0  0  0  0
   -1.7856   -9.0086  -18.9000 C   0  0  0  0  0  0  0  0  0  0  0  0
   -3.1265   -9.0042  -20.8750 C   0  0  0  0  0  0  0  0  0  0  0  0
   -3.8225   -7.7994  -19.0034 C   0  0  0  0  0  0  0  0  0  0  0  0
   -6.5304    1.4449  -17.5571 C   0  0  2  0  0  0  0  0  0  0  0  0
   -5.1912    2.3687  -19.4866 C   0  0  0  0  0  0  0  0  0  0  0  0
   -3.3158    1.4092  -19.2534 C   0  0  0  0  0  0  0  0  0  0  0  0
   -2.0108    0.9440  -19.3225 C   0  0  0  0  0  0  0  0  0  0  0  0
   -2.4428   -0.3533  -17.3698 C   0  0  0  0  0  0  0  0  0  0  0  0
   -4.1339    0.9819  -18.2680 C   0  0  0  0  0  0  0  0  0  0  0  0
   -4.2139    7.3306  -17.2709 N   0  0  0  0  0  0  0  0  0  0  0  0
   -2.9699    9.2007  -17.5522 N   0  0  0  0  0  0  0  0  0  0  0  0
   -6.2686   10.7716  -17.6239 N   0  0  0  0  0  0  0  0  0  0  0  0
   -6.3798    8.4132  -17.3263 N   0  0  0  0  0  0  0  0  0  0  0  0
   -4.1502   11.9340  -17.8443 N   0  0  0  0  0  0  0  0  0  0  0  0
   -4.5846   -7.0131  -18.2330 N   0  0  0  0  0  0  0  0  0  0  0  0
   -2.7525   -7.6546  -17.0695 N   0  0  0  0  0  0  0  0  0  0  0  0
   -2.0075   -9.4063  -20.1880 N   0  0  0  0  0  0  0  0  0  0  0  0
   -4.0516   -8.1905  -20.2808 N   0  0  0  0  0  0  0  0  0  0  0  0
   -0.6224   -9.4330  -18.1958 N   0  0  0  0  0  0  0  0  0  0  0  0
   -5.3358    1.5633  -18.4005 N   0  0  0  0  0  0  0  0  0  0  0  0
   -3.9507    2.2918  -20.0436 N   0  0  0  0  0  0  0  0  0  0  0  0
   -1.5977    0.0603  -18.3676 N   0  0  0  0  0  0  0  0  0  0  0  0
   -3.7269    0.1117  -17.3113 N   0  0  0  0  0  0  0  0  0  0  0  0
   -1.1219    1.3736  -20.3462 N   0  0  0  0  0  0  0  0  0  0  0  0
   -8.9760    3.2128  -19.3957 P   0  0  2  0  0  0  0  0  0  0  0  0
   -5.1585   -3.0482  -19.1886 P   0  0  2  0  0  0  0  0  0  0  0  0
   -7.4978  -10.6546  -20.0783 P   0  0  2  0  0  0  0  0  0  0  0  0
   -9.2367  -10.9585  -17.9725 P   0  0  1  0  0  0  0  0  0  0  0  0
   -8.4720  -12.6775  -15.9670 P   0  0  0  0  0  0  0  0  0  0  0  0
 26  1  1  0
 27 26  1  6
 27 28  1  0
 27  2  1  0
 28 29  1  0
 28  4  1  1
 29 30  1  0
 29  3  1  6
 30  2  1  0
 30 56  1  6
 32 57  1  0
 33 58  2  0
 33 60  1  0
 34 59  2  0
 35 56  1  0
 35 32  2  0
 36  6  1  1
 36 37  1  0
 37 38  1  0
 37 24  1  1
 38 39  1  6
 38 23  1  0
 39  7  1  0
 40  9  1  1
 40 41  1  0
 41 42  1  0
 41 21  1  1
 42 43  1  6
 42 20  1  0
 43 10  1  0
 44 20  1  0
 44 61  1  6
 44 40  1  0
 46 62  1  0
 47 63  2  0
 47 65  1  0
 48 64  2  0
 49 61  1  0
 49 46  2  0
 50 23  1  0
 50 66  1  6
 50 36  1  0
 52 67  1  0
 53 68  2  0
 53 70  1  0
 54 69  2  0
 55 66  1  0
 55 52  2  0
 56 31  1  0
 61 45  1  0
 66 51  1  0
 71  1  1  0
 71  6  1  0
 71 25  1  6
 72  7  1  0
 72  9  1  0
 72 22  1  1
 73 10  1  0
 73 12  1  0
 73 19  1  1
 74 12  1  0
 74 14  1  0
 74 18  1  1
 75 14  1  0
 75 16  1  0
 75 17  1  0
 31 57  2  0
 32 33  1  0
 34 58  1  0
 35 59  1  0
 45 62  2  0
 46 47  1  0
 48 63  1  0
 49 64  1  0
 51 67  2  0
 52 53  1  0
 54 68  1  0
 55 69  1  0
 71  5  2  0
 72  8  2  0
 73 11  2  0
 74 13  2  0
 75 15  2  0
M  END
>  <rmsd>  (11) 
0.869312167

$$$$
CHEMBL424932 PubChem-44413929
     RDKit          3D

 93104  0  0  0  0  0  0  0  0999 V2000
   -7.0609  -13.5936  -20.1586 N   0  0  0  0  0  0  0  0  0  0  0  0
   -5.2371  -12.9839  -21.5612 N   0  0  0  0  0  0  0  0  0  0  0  0
   -6.8724  -15.3650  -18.5150 N   0  0  0  0  0  0  0  0  0  0  0  0
   -4.0610  -15.5825  -19.5224 N   0  0  0  0  0  0  0  0  0  0  0  0
   -3.2351  -14.2840  -21.1848 N   0  0  0  0  0  0  0  0  0  0  0  0
   -4.2138   -6.1859  -18.3198 N   0  0  0  0  0  0  0  0  0  0  0  0
   -2.5844   -7.8962  -17.7558 N   0  0  0  0  0  0  0  0  0  0  0  0
   -0.9220   -7.1799  -16.2110 N   0  0  0  0  0  0  0  0  0  0  0  0
   -3.3354   -4.5542  -17.0080 N   0  0  0  0  0  0  0  0  0  0  0  0
   -0.8922   -4.9258  -15.3210 N   0  0  0  0  0  0  0  0  0  0  0  0
   -4.3609    0.1925  -18.6700 N   0  0  0  0  0  0  0  0  0  0  0  0
   -2.8046    1.1863  -17.1111 N   0  0  0  0  0  0  0  0  0  0  0  0
   -1.2049    2.6212  -18.1314 N   0  0  0  0  0  0  0  0  0  0  0  0
   -3.5263    1.1552  -20.5415 N   0  0  0  0  0  0  0  0  0  0  0  0
   -1.1696    2.9978  -20.5279 N   0  0  0  0  0  0  0  0  0  0  0  0
   -8.7681    7.1065  -17.9688 N   0  0  0  0  0  0  0  0  0  0  0  0
   -9.4513    8.9200  -19.4131 N   0  0  0  0  0  0  0  0  0  0  0  0
  -11.0882   10.3520  -18.4514 N   0  0  0  0  0  0  0  0  0  0  0  0
  -10.1154    7.6252  -16.2242 N   0  0  0  0  0  0  0  0  0  0  0  0
  -11.9748    9.9698  -16.2274 N   0  0  0  0  0  0  0  0  0  0  0  0
   -6.5303  -12.8065  -21.1503 C   0  0  0  0  0  0  0  0  0  0  0  0
   -4.5123  -13.9600  -20.9631 C   0  0  0  0  0  0  0  0  0  0  0  0
   -5.0060  -14.7376  -19.9764 C   0  0  0  0  0  0  0  0  0  0  0  0
   -6.3161  -14.5650  -19.5519 C   0  0  0  0  0  0  0  0  0  0  0  0
   -2.9747  -15.2719  -20.2867 C   0  0  0  0  0  0  0  0  0  0  0  0
   -2.2959  -13.6288  -22.0927 C   0  0  1  0  0  0  0  0  0  0  0  0
   -1.6815  -12.3840  -21.4782 C   0  0  2  0  0  0  0  0  0  0  0  0
   -3.3162   -9.4203  -20.6757 C   0  0  0  0  0  0  0  0  0  0  0  0
   -4.5743   -8.5761  -20.5973 C   0  0  2  0  0  0  0  0  0  0  0  0
   -4.3834   -7.3018  -21.3777 C   0  0  2  0  0  0  0  0  0  0  0  0
   -5.2132   -6.3315  -20.6114 C   0  0  1  0  0  0  0  0  0  0  0  0
   -5.1706   -6.8887  -19.1899 C   0  0  1  0  0  0  0  0  0  0  0  0
   -3.1127   -6.6463  -17.7043 C   0  0  0  0  0  0  0  0  0  0  0  0
   -1.4750   -8.1575  -16.9991 C   0  0  0  0  0  0  0  0  0  0  0  0
   -1.4621   -5.9259  -16.1586 C   0  0  0  0  0  0  0  0  0  0  0  0
   -2.5910   -5.6709  -16.9283 C   0  0  0  0  0  0  0  0  0  0  0  0
   -4.3317   -4.9089  -17.8670 C   0  0  0  0  0  0  0  0  0  0  0  0
   -6.8495   -3.2023  -19.4746 C   0  0  0  0  0  0  0  0  0  0  0  0
   -6.6464   -2.2296  -18.3219 C   0  0  2  0  0  0  0  0  0  0  0  0
   -7.4161   -0.9520  -18.5321 C   0  0  2  0  0  0  0  0  0  0  0  0
   -6.6148    0.0465  -17.7458 C   0  0  2  0  0  0  0  0  0  0  0  0
   -5.2211   -0.5636  -17.7674 C   0  0  1  0  0  0  0  0  0  0  0  0
   -3.3181    0.9601  -18.3446 C   0  0  0  0  0  0  0  0  0  0  0  0
   -1.7318    2.0284  -17.0108 C   0  0  0  0  0  0  0  0  0  0  0  0
   -1.7329    2.3896  -19.3693 C   0  0  0  0  0  0  0  0  0  0  0  0
   -2.8203    1.5331  -19.4596 C   0  0  0  0  0  0  0  0  0  0  0  0
   -4.4739    0.3268  -20.0171 C   0  0  0  0  0  0  0  0  0  0  0  0
   -7.1322    3.3207  -17.4121 C   0  0  0  0  0  0  0  0  0  0  0  0
   -6.7594    4.4716  -18.3323 C   0  0  2  0  0  0  0  0  0  0  0  0
   -5.9467    5.5010  -17.5862 C   0  0  2  0  0  0  0  0  0  0  0  0
   -6.3639    6.7979  -18.2131 C   0  0  2  0  0  0  0  0  0  0  0  0
   -7.7307    6.4775  -18.7785 C   0  0  1  0  0  0  0  0  0  0  0  0
   -9.5059    8.1746  -18.2833 C   0  0  0  0  0  0  0  0  0  0  0  0
  -10.2602   10.0204  -19.4939 C   0  0  0  0  0  0  0  0  0  0  0  0
  -11.1338    9.5976  -17.3137 C   0  0  0  0  0  0  0  0  0  0  0  0
  -10.3090    8.4843  -17.2431 C   0  0  0  0  0  0  0  0  0  0  0  0
   -9.1540    6.7849  -16.7053 C   0  0  0  0  0  0  0  0  0  0  0  0
   -0.3457  -12.3129  -22.1558 C   0  0  1  0  0  0  0  0  0  0  0  0
   -0.1683  -13.6767  -22.7957 C   0  0  1  0  0  0  0  0  0  0  0  0
    1.1256  -14.2979  -22.2978 C   0  0  0  0  0  0  0  0  0  0  0  0
   -1.4840  -12.5568  -20.1027 O   0  0  0  0  0  0  0  0  0  0  0  0
   -0.9406  -10.0543  -19.5560 O   0  0  0  0  0  0  0  0  0  0  0  0
   -3.5148  -10.6412  -20.0246 O   0  0  0  0  0  0  0  0  0  0  0  0
   -4.8736   -8.2684  -19.2547 O   0  0  0  0  0  0  0  0  0  0  0  0
   -4.6958   -5.0346  -20.7164 O   0  0  0  0  0  0  0  0  0  0  0  0
   -5.2877   -3.6767  -22.8715 O   0  0  0  0  0  0  0  0  0  0  0  0
   -6.2407   -2.7261  -20.6397 O   0  0  0  0  0  0  0  0  0  0  0  0
   -5.2839   -1.9117  -18.1766 O   0  0  0  0  0  0  0  0  0  0  0  0
   -7.0793    0.1312  -16.4231 O   0  0  0  0  0  0  0  0  0  0  0  0
   -7.5284    2.2019  -14.8719 O   0  0  0  0  0  0  0  0  0  0  0  0
   -5.9769    2.6733  -16.9656 O   0  0  0  0  0  0  0  0  0  0  0  0
   -7.9294    5.0810  -18.8229 O   0  0  0  0  0  0  0  0  0  0  0  0
   -5.5088    7.1556  -19.2638 O   0  0  0  0  0  0  0  0  0  0  0  0
   -4.2416    8.8042  -17.6481 O   0  0  0  0  0  0  0  0  0  0  0  0
   -4.0452    9.2958  -20.2066 O   0  0  0  0  0  0  0  0  0  0  0  0
   -6.3847    9.7535  -18.8193 O   0  0  0  0  0  0  0  0  0  0  0  0
   -4.5789    5.2596  -17.7426 O   0  0  0  0  0  0  0  0  0  0  0  0
   -5.1296    1.2015  -14.8035 O   0  0  0  0  0  0  0  0  0  0  0  0
   -8.7213   -1.0750  -18.0463 O   0  0  0  0  0  0  0  0  0  0  0  0
   -7.2917   -4.9851  -21.8312 O   0  0  0  0  0  0  0  0  0  0  0  0
   -4.8906   -7.4504  -22.6683 O   0  0  0  0  0  0  0  0  0  0  0  0
   -2.2137  -11.4015  -17.7213 O   0  0  0  0  0  0  0  0  0  0  0  0
   -0.3846  -11.3371  -23.1527 O   0  0  0  0  0  0  0  0  0  0  0  0
   -1.2570  -14.5021  -22.4561 O   0  0  0  0  0  0  0  0  0  0  0  0
    1.4103  -15.4503  -23.0325 O   0  0  0  0  0  0  0  0  0  0  0  0
    3.4192  -17.0933  -23.3690 O   0  0  0  0  0  0  0  0  0  0  0  0
    2.8745  -16.4366  -20.8963 O   0  0  0  0  0  0  0  0  0  0  0  0
    4.0467  -14.6567  -22.6577 O   0  0  0  0  0  0  0  0  0  0  0  0
   -2.0094  -11.1142  -19.3747 P   0  0  1  0  0  0  0  0  0  0  0  0
   -5.8659   -4.1095  -21.5431 P   0  0  2  0  0  0  0  0  0  0  0  0
   -6.4721    1.5790  -15.7598 P   0  0  2  0  0  0  0  0  0  0  0  0
   -5.0271    8.7507  -18.9413 P   0  0  0  0  0  0  0  0  0  0  0  0
    2.9476  -15.9391  -22.5123 P   0  0  0  0  0  0  0  0  0  0  0  0
  5 22  1  0
  6 33  1  0
 11 43  1  0
 16 53  1  0
 21  2  2  0
 22 23  2  0
 23  4  1  0
 24  3  1  0
 24  1  2  0
 25  5  1  0
 26  5  1  1
 26 27  1  0
 26 84  1  0
 27 61  1  1
 27 58  1  0
 28 63  1  0
 29 28  1  1
 29 30  1  0
 29 64  1  0
 30 31  1  0
 30 81  1  6
 31 32  1  0
 31 65  1  1
 32  6  1  1
 32 64  1  0
 34  7  2  0
 35  8  2  0
 35 10  1  0
 36  9  1  0
 36 33  2  0
 37  6  1  0
 38 67  1  0
 39 38  1  6
 39 40  1  0
 39 68  1  0
 40 41  1  0
 40 79  1  1
 41 42  1  0
 41 69  1  1
 42 11  1  6
 42 68  1  0
 44 12  2  0
 45 13  2  0
 45 15  1  0
 46 14  1  0
 46 43  2  0
 47 11  1  0
 48 71  1  0
 49 48  1  1
 49 50  1  0
 49 72  1  0
 50 51  1  0
 50 77  1  6
 51 52  1  0
 51 73  1  6
 52 16  1  1
 52 72  1  0
 54 17  2  0
 55 18  2  0
 55 20  1  0
 56 19  1  0
 56 53  2  0
 57 16  1  0
 58 83  1  6
 58 59  1  0
 59 84  1  0
 59 60  1  1
 60 85  1  0
 89 61  1  0
 89 63  1  0
 89 82  1  1
 90 65  1  0
 90 67  1  0
 90 80  1  6
 91 69  1  0
 91 71  1  0
 91 78  1  1
 92 73  1  0
 92 75  1  0
 92 76  1  0
 93 85  1  0
 93 87  1  0
 93 88  1  0
 21  1  1  0
 22  2  1  0
 23 24  1  0
 25  4  2  0
 33  7  1  0
 34  8  1  0
 35 36  1  0
 37  9  2  0
 43 12  1  0
 44 13  1  0
 45 46  1  0
 47 14  2  0
 53 17  1  0
 54 18  1  0
 55 56  1  0
 57 19  2  0
 89 62  2  0
 90 66  2  0
 91 70  2  0
 92 74  2  0
 93 86  2  0
M  END
>  <rmsd>  (12) 
0.559890985

$$$$
CHEMBL405285 PubChem-44413871
     RDKit          3D

 93104  0  0  0  0  0  0  0  0999 V2000
   -3.6536   18.3107  -19.9725 N   0  0  0  0  0  0  0  0  0  0  0  0
   -3.2378   17.5569  -22.1903 N   0  0  0  0  0  0  0  0  0  0  0  0
   -2.6977   17.1988  -18.0386 N   0  0  0  0  0  0  0  0  0  0  0  0
   -1.4829   15.3735  -20.0806 N   0  0  0  0  0  0  0  0  0  0  0  0
   -1.8322   15.5881  -22.3118 N   0  0  0  0  0  0  0  0  0  0  0  0
   -4.0308    7.4498  -22.0280 N   0  0  0  0  0  0  0  0  0  0  0  0
   -6.4161    7.0689  -21.8877 N   0  0  0  0  0  0  0  0  0  0  0  0
   -7.1332    5.0716  -22.9706 N   0  0  0  0  0  0  0  0  0  0  0  0
   -3.5323    5.5917  -23.2188 N   0  0  0  0  0  0  0  0  0  0  0  0
   -5.5727    3.6027  -24.1067 N   0  0  0  0  0  0  0  0  0  0  0  0
   -3.6705    1.5598  -18.5815 N   0  0  0  0  0  0  0  0  0  0  0  0
   -2.8998   -0.5119  -19.5558 N   0  0  0  0  0  0  0  0  0  0  0  0
   -1.3554   -1.6949  -18.1883 N   0  0  0  0  0  0  0  0  0  0  0  0
   -2.4483    1.4508  -16.6810 N   0  0  0  0  0  0  0  0  0  0  0  0
   -0.6153   -0.8271  -16.0477 N   0  0  0  0  0  0  0  0  0  0  0  0
   -5.7795   -5.6155  -21.2382 N   0  0  0  0  0  0  0  0  0  0  0  0
   -7.9970   -5.5385  -22.1941 N   0  0  0  0  0  0  0  0  0  0  0  0
   -8.0347   -5.7273  -24.5658 N   0  0  0  0  0  0  0  0  0  0  0  0
   -4.6553   -5.8660  -23.1927 N   0  0  0  0  0  0  0  0  0  0  0  0
   -6.0033   -5.9953  -25.8637 N   0  0  0  0  0  0  0  0  0  0  0  0
   -3.8215   18.4437  -21.3289 C   0  0  0  0  0  0  0  0  0  0  0  0
   -2.4940   16.5537  -21.6603 C   0  0  0  0  0  0  0  0  0  0  0  0
   -2.2950   16.4160  -20.3312 C   0  0  0  0  0  0  0  0  0  0  0  0
   -2.8906   17.3059  -19.4459 C   0  0  0  0  0  0  0  0  0  0  0  0
   -1.1874   14.9074  -21.3269 C   0  0  0  0  0  0  0  0  0  0  0  0
   -1.6132   15.4572  -23.7560 C   0  0  1  0  0  0  0  0  0  0  0  0
   -1.5539   13.9993  -24.1705 C   0  0  1  0  0  0  0  0  0  0  0  0
   -0.9989   10.7184  -21.6743 C   0  0  0  0  0  0  0  0  0  0  0  0
   -2.2442   10.1715  -20.9993 C   0  0  2  0  0  0  0  0  0  0  0  0
   -1.9423    9.1260  -19.9445 C   0  0  1  0  0  0  0  0  0  0  0  0
   -3.2145    8.3405  -19.9041 C   0  0  2  0  0  0  0  0  0  0  0  0
   -3.8863    8.6644  -21.2339 C   0  0  1  0  0  0  0  0  0  0  0  0
   -5.1584    6.7841  -22.3008 C   0  0  0  0  0  0  0  0  0  0  0  0
   -7.4128    6.1994  -22.2378 C   0  0  0  0  0  0  0  0  0  0  0  0
   -5.8609    4.7852  -23.3675 C   0  0  0  0  0  0  0  0  0  0  0  0
   -4.8587    5.6749  -23.0100 C   0  0  0  0  0  0  0  0  0  0  0  0
   -3.0480    6.7017  -22.5947 C   0  0  0  0  0  0  0  0  0  0  0  0
   -5.3923    5.0703  -18.7736 C   0  0  0  0  0  0  0  0  0  0  0  0
   -5.5210    4.0699  -19.9099 C   0  0  2  0  0  0  0  0  0  0  0  0
   -6.6941    3.1596  -19.6471 C   0  0  2  0  0  0  0  0  0  0  0  0
   -6.0325    1.9768  -19.0019 C   0  0  2  0  0  0  0  0  0  0  0  0
   -4.6370    1.9943  -19.5811 C   0  0  1  0  0  0  0  0  0  0  0  0
   -2.9287    0.4518  -18.5999 C   0  0  0  0  0  0  0  0  0  0  0  0
   -2.1013   -1.5994  -19.3371 C   0  0  0  0  0  0  0  0  0  0  0  0
   -1.3838   -0.7102  -17.2398 C   0  0  0  0  0  0  0  0  0  0  0  0
   -2.2025    0.3825  -17.4643 C   0  0  0  0  0  0  0  0  0  0  0  0
   -3.3685    2.1561  -17.3944 C   0  0  0  0  0  0  0  0  0  0  0  0
   -5.8229   -2.0873  -19.0025 C   0  0  0  0  0  0  0  0  0  0  0  0
   -5.9732   -3.5474  -18.6155 C   0  0  2  0  0  0  0  0  0  0  0  0
   -4.6203   -4.2037  -18.4950 C   0  0  2  0  0  0  0  0  0  0  0  0
   -4.8751   -5.6127  -18.9341 C   0  0  2  0  0  0  0  0  0  0  0  0
   -6.1040   -5.4672  -19.8196 C   0  0  1  0  0  0  0  0  0  0  0  0
   -6.6479   -5.6424  -22.2534 C   0  0  0  0  0  0  0  0  0  0  0  0
   -8.6921   -5.5810  -23.3716 C   0  0  0  0  0  0  0  0  0  0  0  0
   -6.6750   -5.8375  -24.6174 C   0  0  0  0  0  0  0  0  0  0  0  0
   -5.9793   -5.7929  -23.4171 C   0  0  0  0  0  0  0  0  0  0  0  0
   -4.5627   -5.7566  -21.8353 C   0  0  0  0  0  0  0  0  0  0  0  0
   -2.2310   13.9666  -25.5145 C   0  0  2  0  0  0  0  0  0  0  0  0
   -2.6405   15.4227  -25.7264 C   0  0  1  0  0  0  0  0  0  0  0  0
   -3.9853   15.5789  -26.4327 C   0  0  0  0  0  0  0  0  0  0  0  0
   -0.2201   13.5900  -24.2821 O   0  0  0  0  0  0  0  0  0  0  0  0
   -0.3635   11.0003  -24.6483 O   0  0  0  0  0  0  0  0  0  0  0  0
   -1.3214   11.8868  -22.3647 O   0  0  0  0  0  0  0  0  0  0  0  0
   -3.1199    9.6139  -21.9405 O   0  0  0  0  0  0  0  0  0  0  0  0
   -4.0090    8.7959  -18.8448 O   0  0  0  0  0  0  0  0  0  0  0  0
   -6.3903    7.7361  -18.6267 O   0  0  0  0  0  0  0  0  0  0  0  0
   -4.4319    6.0293  -19.0978 O   0  0  0  0  0  0  0  0  0  0  0  0
   -4.3361    3.3047  -20.0033 O   0  0  0  0  0  0  0  0  0  0  0  0
   -6.6971    0.7824  -19.3089 O   0  0  0  0  0  0  0  0  0  0  0  0
   -6.6167    0.7452  -16.6466 O   0  0  0  0  0  0  0  0  0  0  0  0
   -5.5763   -1.3131  -17.8681 O   0  0  0  0  0  0  0  0  0  0  0  0
   -6.7165   -4.2146  -19.6026 O   0  0  0  0  0  0  0  0  0  0  0  0
   -5.1881   -6.4348  -17.8444 O   0  0  0  0  0  0  0  0  0  0  0  0
   -2.8105   -7.5088  -17.5415 O   0  0  0  0  0  0  0  0  0  0  0  0
   -4.8421   -9.0525  -17.0516 O   0  0  0  0  0  0  0  0  0  0  0  0
   -4.1669   -8.3349  -19.6267 O   0  0  0  0  0  0  0  0  0  0  0  0
   -4.1496   -4.1330  -17.1825 O   0  0  0  0  0  0  0  0  0  0  0  0
   -8.3066   -0.8751  -17.7932 O   0  0  0  0  0  0  0  0  0  0  0  0
   -7.2673    2.8029  -20.8728 O   0  0  0  0  0  0  0  0  0  0  0  0
   -4.7369    7.2899  -16.6520 O   0  0  0  0  0  0  0  0  0  0  0  0
   -0.9068    8.2800  -20.3538 O   0  0  0  0  0  0  0  0  0  0  0  0
    1.4088   11.8436  -22.9160 O   0  0  0  0  0  0  0  0  0  0  0  0
   -3.3425   13.1184  -25.4299 O   0  0  0  0  0  0  0  0  0  0  0  0
   -2.6584   16.0574  -24.4742 O   0  0  0  0  0  0  0  0  0  0  0  0
   -4.2704   16.9342  -26.6311 O   0  0  0  0  0  0  0  0  0  0  0  0
   -6.4775   16.6983  -25.2330 O   0  0  0  0  0  0  0  0  0  0  0  0
   -6.6379   16.0034  -27.7528 O   0  0  0  0  0  0  0  0  0  0  0  0
   -6.4123   18.6410  -26.9759 O   0  0  0  0  0  0  0  0  0  0  0  0
   -0.1390   12.0462  -23.5759 P   0  0  2  0  0  0  0  0  0  0  0  0
   -4.9311    7.4632  -18.3246 P   0  0  1  0  0  0  0  0  0  0  0  0
   -6.7877   -0.1272  -17.8698 P   0  0  2  0  0  0  0  0  0  0  0  0
   -4.2104   -7.8142  -18.0149 P   0  0  0  0  0  0  0  0  0  0  0  0
   -5.9624   17.0519  -26.6096 P   0  0  0  0  0  0  0  0  0  0  0  0
  5 22  1  0
  6 33  1  0
 11 43  1  0
 16 53  1  0
 21  2  2  0
 22 23  2  0
 23  4  1  0
 24  3  1  0
 24  1  2  0
 25  5  1  0
 26  5  1  1
 26 27  1  0
 26 84  1  0
 27 61  1  6
 27 58  1  0
 28 63  1  0
 29 28  1  6
 29 30  1  0
 29 64  1  0
 30 31  1  0
 30 81  1  6
 31 32  1  0
 31 65  1  1
 32  6  1  6
 32 64  1  0
 34  7  2  0
 35  8  2  0
 35 10  1  0
 36  9  1  0
 36 33  2  0
 37  6  1  0
 38 67  1  0
 39 38  1  1
 39 40  1  0
 39 68  1  0
 40 41  1  0
 40 79  1  6
 41 42  1  0
 41 69  1  6
 42 11  1  1
 42 68  1  0
 44 12  2  0
 45 13  2  0
 45 15  1  0
 46 14  1  0
 46 43  2  0
 47 11  1  0
 48 71  1  0
 49 48  1  6
 49 50  1  0
 49 72  1  0
 50 51  1  0
 50 77  1  1
 51 52  1  0
 51 73  1  1
 52 16  1  6
 52 72  1  0
 54 17  2  0
 55 18  2  0
 55 20  1  0
 56 19  1  0
 56 53  2  0
 57 16  1  0
 58 83  1  1
 58 59  1  0
 59 84  1  0
 59 60  1  1
 60 85  1  0
 89 61  1  0
 89 63  1  0
 89 82  1  1
 90 65  1  0
 90 67  1  0
 90 80  1  1
 91 69  1  0
 91 71  1  0
 91 78  1  1
 92 73  1  0
 92 75  1  0
 92 76  1  0
 93 85  1  0
 93 87  1  0
 93 88  1  0
 21  1  1  0
 22  2  1  0
 23 24  1  0
 25  4  2  0
 33  7  1  0
 34  8  1  0
 35 36  1  0
 37  9  2  0
 43 12  1  0
 44 13  1  0
 45 46  1  0
 47 14  2  0
 53 17  1  0
 54 18  1  0
 55 56  1  0
 57 19  2  0
 89 62  2  0
 90 66  2  0
 91 70  2  0
 92 74  2  0
 93 86  2  0
M  END
>  <rmsd>  (13) 
0.780604482

$$$$
CHEMBL279184 PubChem-44413849
     RDKit          3D

 93104  0  0  0  0  0  0  0  0999 V2000
   -9.5306   10.3502  -13.5704 N   0  0  0  0  0  0  0  0  0  0  0  0
   -8.2813   10.0502  -15.5728 N   0  0  0  0  0  0  0  0  0  0  0  0
  -11.0569    8.6532  -12.7530 N   0  0  0  0  0  0  0  0  0  0  0  0
  -10.1701    7.1308  -15.1621 N   0  0  0  0  0  0  0  0  0  0  0  0
   -8.6863    7.9333  -16.6809 N   0  0  0  0  0  0  0  0  0  0  0  0
   -3.5559    0.5622  -19.0456 N   0  0  0  0  0  0  0  0  0  0  0  0
   -3.5371   -1.8204  -18.6398 N   0  0  0  0  0  0  0  0  0  0  0  0
   -2.1683   -2.4734  -16.8053 N   0  0  0  0  0  0  0  0  0  0  0  0
   -2.1294    1.1365  -17.3778 N   0  0  0  0  0  0  0  0  0  0  0  0
   -0.9121   -0.8531  -15.5028 N   0  0  0  0  0  0  0  0  0  0  0  0
   -6.8010   -3.8026  -20.7342 N   0  0  0  0  0  0  0  0  0  0  0  0
   -7.8864   -4.8946  -22.5979 N   0  0  0  0  0  0  0  0  0  0  0  0
   -7.3373   -3.9534  -24.7167 N   0  0  0  0  0  0  0  0  0  0  0  0
   -5.6581   -2.2685  -21.9400 N   0  0  0  0  0  0  0  0  0  0  0  0
   -5.8182   -2.0777  -24.9245 N   0  0  0  0  0  0  0  0  0  0  0  0
   -0.7754  -11.4480  -19.7538 N   0  0  0  0  0  0  0  0  0  0  0  0
   -2.1748  -13.4175  -19.6677 N   0  0  0  0  0  0  0  0  0  0  0  0
   -1.6015  -15.0808  -21.2661 N   0  0  0  0  0  0  0  0  0  0  0  0
    0.5698  -12.1461  -21.4459 N   0  0  0  0  0  0  0  0  0  0  0  0
    0.2383  -14.7856  -22.8151 N   0  0  0  0  0  0  0  0  0  0  0  0
   -8.6164   10.8105  -14.4854 C   0  0  0  0  0  0  0  0  0  0  0  0
   -8.8820    8.8420  -15.7149 C   0  0  0  0  0  0  0  0  0  0  0  0
   -9.7713    8.3659  -14.8190 C   0  0  0  0  0  0  0  0  0  0  0  0
  -10.1223    9.1262  -13.7134 C   0  0  0  0  0  0  0  0  0  0  0  0
   -9.4731    6.8883  -16.3076 C   0  0  0  0  0  0  0  0  0  0  0  0
   -7.7157    7.9697  -17.7785 C   0  0  1  0  0  0  0  0  0  0  0  0
   -8.1548    7.0801  -18.9294 C   0  0  1  0  0  0  0  0  0  0  0  0
   -6.0891    3.6722  -20.8217 C   0  0  0  0  0  0  0  0  0  0  0  0
   -5.7381    2.2405  -21.2106 C   0  0  2  0  0  0  0  0  0  0  0  0
   -6.7490    1.2749  -20.6190 C   0  0  2  0  0  0  0  0  0  0  0  0
   -5.9534    0.4663  -19.6380 C   0  0  1  0  0  0  0  0  0  0  0  0
   -4.5268    0.6674  -20.1316 C   0  0  1  0  0  0  0  0  0  0  0  0
   -3.1730   -0.5380  -18.3913 C   0  0  0  0  0  0  0  0  0  0  0  0
   -3.0227   -2.7961  -17.8291 C   0  0  0  0  0  0  0  0  0  0  0  0
   -1.8021   -1.1776  -16.5680 C   0  0  0  0  0  0  0  0  0  0  0  0
   -2.3244   -0.1958  -17.3969 C   0  0  0  0  0  0  0  0  0  0  0  0
   -2.9099    1.5751  -18.4081 C   0  0  0  0  0  0  0  0  0  0  0  0
   -7.1997   -2.4629  -16.8285 C   0  0  0  0  0  0  0  0  0  0  0  0
   -7.3582   -3.8340  -17.4692 C   0  0  2  0  0  0  0  0  0  0  0  0
   -6.0178   -4.5079  -17.6534 C   0  0  2  0  0  0  0  0  0  0  0  0
   -6.2052   -5.3173  -18.9042 C   0  0  2  0  0  0  0  0  0  0  0  0
   -7.3224   -4.5713  -19.6144 C   0  0  1  0  0  0  0  0  0  0  0  0
   -7.0717   -3.9701  -22.0301 C   0  0  0  0  0  0  0  0  0  0  0  0
   -8.0125   -4.8791  -23.9617 C   0  0  0  0  0  0  0  0  0  0  0  0
   -6.5137   -3.0313  -24.1321 C   0  0  0  0  0  0  0  0  0  0  0  0
   -6.3907   -3.0571  -22.7500 C   0  0  0  0  0  0  0  0  0  0  0  0
   -5.9376   -2.7544  -20.6987 C   0  0  0  0  0  0  0  0  0  0  0  0
   -3.7693   -8.1134  -19.2231 C   0  0  0  0  0  0  0  0  0  0  0  0
   -2.7827   -8.9506  -18.4298 C   0  0  2  0  0  0  0  0  0  0  0  0
   -1.4303   -8.2934  -18.4268 C   0  0  2  0  0  0  0  0  0  0  0  0
   -0.4799   -9.4594  -18.3020 C   0  0  2  0  0  0  0  0  0  0  0  0
   -1.3491  -10.6583  -18.6652 C   0  0  1  0  0  0  0  0  0  0  0  0
   -1.1605  -12.6628  -20.1584 C   0  0  0  0  0  0  0  0  0  0  0  0
   -2.3939  -14.6431  -20.2367 C   0  0  0  0  0  0  0  0  0  0  0  0
   -0.5816  -14.3132  -21.7529 C   0  0  0  0  0  0  0  0  0  0  0  0
   -0.3681  -13.0729  -21.1709 C   0  0  0  0  0  0  0  0  0  0  0  0
    0.2940  -11.1570  -20.5485 C   0  0  0  0  0  0  0  0  0  0  0  0
   -8.6652    8.0696  -19.9351 C   0  0  1  0  0  0  0  0  0  0  0  0
   -7.9102    9.3275  -19.5995 C   0  0  1  0  0  0  0  0  0  0  0  0
   -8.7686   10.5525  -19.8548 C   0  0  0  0  0  0  0  0  0  0  0  0
   -7.0403    6.3823  -19.4125 O   0  0  0  0  0  0  0  0  0  0  0  0
   -7.3311    4.6781  -17.4293 O   0  0  0  0  0  0  0  0  0  0  0  0
   -5.9145    3.8599  -19.4497 O   0  0  0  0  0  0  0  0  0  0  0  0
   -4.4399    1.9229  -20.7582 O   0  0  0  0  0  0  0  0  0  0  0  0
   -6.1191    1.0175  -18.3598 O   0  0  0  0  0  0  0  0  0  0  0  0
   -7.1419    0.3544  -16.0529 O   0  0  0  0  0  0  0  0  0  0  0  0
   -6.3916   -1.6386  -17.6118 O   0  0  0  0  0  0  0  0  0  0  0  0
   -7.9986   -3.7206  -18.7159 O   0  0  0  0  0  0  0  0  0  0  0  0
   -6.6393   -6.6177  -18.6120 O   0  0  0  0  0  0  0  0  0  0  0  0
   -5.5059   -6.8625  -21.0338 O   0  0  0  0  0  0  0  0  0  0  0  0
   -5.0083   -8.7589  -19.2631 O   0  0  0  0  0  0  0  0  0  0  0  0
   -2.6387  -10.2180  -19.0141 O   0  0  0  0  0  0  0  0  0  0  0  0
   -0.0276   -9.6091  -16.9830 O   0  0  0  0  0  0  0  0  0  0  0  0
    2.2441   -8.5201  -17.7821 O   0  0  0  0  0  0  0  0  0  0  0  0
    2.3148   -9.8222  -15.5274 O   0  0  0  0  0  0  0  0  0  0  0  0
    2.0811  -11.1333  -17.9348 O   0  0  0  0  0  0  0  0  0  0  0  0
   -1.3225   -7.4004  -17.3555 O   0  0  0  0  0  0  0  0  0  0  0  0
   -7.4656   -8.4789  -20.4512 O   0  0  0  0  0  0  0  0  0  0  0  0
   -5.6963   -5.3023  -16.5500 O   0  0  0  0  0  0  0  0  0  0  0  0
   -8.6451   -0.1159  -18.1545 O   0  0  0  0  0  0  0  0  0  0  0  0
   -7.2300    0.4371  -21.6250 O   0  0  0  0  0  0  0  0  0  0  0  0
   -8.6836    4.1519  -19.6138 O   0  0  0  0  0  0  0  0  0  0  0  0
   -8.3872    7.6699  -21.2429 O   0  0  0  0  0  0  0  0  0  0  0  0
   -7.5457    9.2940  -18.2420 O   0  0  0  0  0  0  0  0  0  0  0  0
   -8.9917   10.7213  -21.2218 O   0  0  0  0  0  0  0  0  0  0  0  0
  -11.2353   11.9839  -20.6817 O   0  0  0  0  0  0  0  0  0  0  0  0
   -9.0693   13.4539  -20.6678 O   0  0  0  0  0  0  0  0  0  0  0  0
  -10.1527   12.4831  -23.0055 O   0  0  0  0  0  0  0  0  0  0  0  0
   -7.2538    4.7647  -18.9389 P   0  0  2  0  0  0  0  0  0  0  0  0
   -7.0792   -0.0867  -17.5035 P   0  0  2  0  0  0  0  0  0  0  0  0
   -6.1167   -7.6341  -19.8780 P   0  0  1  0  0  0  0  0  0  0  0  0
    1.6665   -9.7313  -17.0839 P   0  0  0  0  0  0  0  0  0  0  0  0
   -9.8972   12.1494  -21.3664 P   0  0  0  0  0  0  0  0  0  0  0  0
  5 22  1  0
  6 33  1  0
 11 43  1  0
 16 53  1  0
 21  2  2  0
 22 23  2  0
 23  4  1  0
 24  3  1  0
 24  1  2  0
 25  5  1  0
 26  5  1  1
 26 27  1  0
 26 84  1  0
 27 61  1  6
 27 58  1  0
 28 63  1  0
 29 28  1  1
 29 30  1  0
 29 64  1  0
 30 31  1  0
 30 81  1  6
 31 32  1  0
 31 65  1  1
 32  6  1  1
 32 64  1  0
 34  7  2  0
 35  8  2  0
 35 10  1  0
 36  9  1  0
 36 33  2  0
 37  6  1  0
 38 67  1  0
 39 38  1  6
 39 40  1  0
 39 68  1  0
 40 41  1  0
 40 79  1  1
 41 42  1  0
 41 69  1  1
 42 11  1  6
 42 68  1  0
 44 12  2  0
 45 13  2  0
 45 15  1  0
 46 14  1  0
 46 43  2  0
 47 11  1  0
 48 71  1  0
 49 48  1  6
 49 50  1  0
 49 72  1  0
 50 51  1  0
 50 77  1  1
 51 52  1  0
 51 73  1  1
 52 16  1  6
 52 72  1  0
 54 17  2  0
 55 18  2  0
 55 20  1  0
 56 19  1  0
 56 53  2  0
 57 16  1  0
 58 83  1  6
 58 59  1  0
 59 84  1  0
 59 60  1  1
 60 85  1  0
 89 61  1  0
 89 63  1  0
 89 82  1  6
 90 65  1  0
 90 67  1  0
 90 80  1  6
 91 69  1  0
 91 71  1  0
 91 78  1  6
 92 73  1  0
 92 75  1  0
 92 76  1  0
 93 85  1  0
 93 87  1  0
 93 88  1  0
 21  1  1  0
 22  2  1  0
 23 24  1  0
 25  4  2  0
 33  7  1  0
 34  8  1  0
 35 36  1  0
 37  9  2  0
 43 12  1  0
 44 13  1  0
 45 46  1  0
 47 14  2  0
 53 17  1  0
 54 18  1  0
 55 56  1  0
 57 19  2  0
 89 62  2  0
 90 66  2  0
 91 70  2  0
 92 74  2  0
 93 86  2  0
M  END
>  <rmsd>  (14) 
0.724241257

$$$$
CHEMBL264592 PubChem-44413937
     RDKit          3D

 71 79  0  0  0  0  0  0  0  0999 V2000
   -8.1828  -19.6072  -24.2293 O   0  0  0  0  0  0  0  0  0  0  0  0
   -7.1961  -20.4358  -26.5099 O   0  0  0  0  0  0  0  0  0  0  0  0
   -7.7864  -17.8769  -26.3642 O   0  0  0  0  0  0  0  0  0  0  0  0
   -7.5052  -16.0634  -24.1929 O   0  0  0  0  0  0  0  0  0  0  0  0
   -5.6988  -13.5542  -24.1704 O   0  0  0  0  0  0  0  0  0  0  0  0
   -4.8854  -11.1179  -23.6982 O   0  0  0  0  0  0  0  0  0  0  0  0
   -6.4557  -12.1849  -21.8929 O   0  0  0  0  0  0  0  0  0  0  0  0
   -6.7078   -9.2727  -21.7162 O   0  0  0  0  0  0  0  0  0  0  0  0
   -4.2983   -8.5574  -19.4926 O   0  0  0  0  0  0  0  0  0  0  0  0
   -4.8849   -7.1573  -17.3176 O   0  0  0  0  0  0  0  0  0  0  0  0
   -3.5009   -5.8946  -19.2021 O   0  0  0  0  0  0  0  0  0  0  0  0
   -3.7985   -3.1348  -18.6698 O   0  0  0  0  0  0  0  0  0  0  0  0
   -6.2871   -1.5637  -16.9544 O   0  0  0  0  0  0  0  0  0  0  0  0
   -7.6915    0.3507  -15.8561 O   0  0  0  0  0  0  0  0  0  0  0  0
   -6.0999    1.0811  -17.7961 O   0  0  0  0  0  0  0  0  0  0  0  0
   -8.4187   -0.3611  -18.2574 O   0  0  0  0  0  0  0  0  0  0  0  0
   -7.0974   -3.9001  -17.7161 O   0  0  0  0  0  0  0  0  0  0  0  0
   -2.4025   -7.8590  -17.6300 O   0  0  0  0  0  0  0  0  0  0  0  0
   -7.6200   -9.0445  -18.7272 O   0  0  0  0  0  0  0  0  0  0  0  0
   -3.8032  -12.9752  -22.2091 O   0  0  0  0  0  0  0  0  0  0  0  0
   -4.5024  -16.8728  -24.0756 O   0  0  0  0  0  0  0  0  0  0  0  0
   -9.7350  -19.8247  -26.4945 O   0  0  0  0  0  0  0  0  0  0  0  0
   -8.1882  -19.4616  -25.9145 P   0  0  0  0  0  0  0  0  0  0  0  0
   -5.1968  -12.4249  -23.0035 P   0  0  1  0  0  0  0  0  0  0  0  0
   -3.8270   -7.3526  -18.3855 P   0  0  2  0  0  0  0  0  0  0  0  0
   -7.1362   -0.1110  -17.1827 P   0  0  0  0  0  0  0  0  0  0  0  0
   -6.5456  -17.6242  -25.7741 C   0  0  0  0  0  0  0  0  0  0  0  0
   -6.5290  -16.2129  -25.1990 C   0  0  2  0  0  0  0  0  0  0  0  0
   -5.1707  -15.7945  -24.6605 C   0  0  1  0  0  0  0  0  0  0  0  0
   -5.5498  -14.8203  -23.5898 C   0  0  2  0  0  0  0  0  0  0  0  0
   -6.9095  -15.3347  -23.1375 C   0  0  2  0  0  0  0  0  0  0  0  0
   -6.2856  -15.8653  -20.7519 C   0  0  0  0  0  0  0  0  0  0  0  0
   -5.3483  -14.5596  -19.0568 C   0  0  0  0  0  0  0  0  0  0  0  0
   -5.9206  -16.8341  -18.6197 C   0  0  0  0  0  0  0  0  0  0  0  0
   -6.3609  -16.9346  -19.9325 C   0  0  0  0  0  0  0  0  0  0  0  0
   -7.1387  -17.4944  -21.8262 C   0  0  0  0  0  0  0  0  0  0  0  0
   -5.9200  -11.3802  -20.8845 C   0  0  0  0  0  0  0  0  0  0  0  0
   -6.8288  -10.1839  -20.6523 C   0  0  1  0  0  0  0  0  0  0  0  0
   -6.4602   -9.4955  -19.3589 C   0  0  1  0  0  0  0  0  0  0  0  0
   -5.6434   -8.3170  -19.7882 C   0  0  2  0  0  0  0  0  0  0  0  0
   -5.8296   -8.2561  -21.2931 C   0  0  2  0  0  0  0  0  0  0  0  0
   -5.7395   -6.0085  -22.3946 C   0  0  0  0  0  0  0  0  0  0  0  0
   -4.0451   -4.9318  -23.5795 C   0  0  0  0  0  0  0  0  0  0  0  0
   -6.1376   -3.8319  -23.2416 C   0  0  0  0  0  0  0  0  0  0  0  0
   -6.5673   -4.9515  -22.5442 C   0  0  0  0  0  0  0  0  0  0  0  0
   -7.5847   -6.4352  -21.4163 C   0  0  0  0  0  0  0  0  0  0  0  0
   -4.7276   -5.2383  -19.3551 C   0  0  0  0  0  0  0  0  0  0  0  0
   -4.8145   -4.0609  -18.3982 C   0  0  2  0  0  0  0  0  0  0  0  0
   -6.1344   -3.3515  -18.5695 C   0  0  2  0  0  0  0  0  0  0  0  0
   -5.8040   -1.9182  -18.2187 C   0  0  2  0  0  0  0  0  0  0  0  0
   -4.2861   -1.9063  -18.1869 C   0  0  2  0  0  0  0  0  0  0  0  0
   -3.0159    0.2129  -18.5730 C   0  0  0  0  0  0  0  0  0  0  0  0
   -1.8010    1.5720  -17.1189 C   0  0  0  0  0  0  0  0  0  0  0  0
   -1.9594    2.1531  -19.4286 C   0  0  0  0  0  0  0  0  0  0  0  0
   -2.7376    1.0195  -19.6187 C   0  0  0  0  0  0  0  0  0  0  0  0
   -3.9315   -0.5919  -20.3213 C   0  0  0  0  0  0  0  0  0  0  0  0
   -6.7642  -16.1917  -21.9584 N   0  0  0  0  0  0  0  0  0  0  0  0
   -5.7880  -14.6703  -20.3480 N   0  0  0  0  0  0  0  0  0  0  0  0
   -5.4145  -15.6336  -18.2051 N   0  0  0  0  0  0  0  0  0  0  0  0
   -6.8964  -17.9873  -20.5786 N   0  0  0  0  0  0  0  0  0  0  0  0
   -5.9852  -17.9422  -17.7292 N   0  0  0  0  0  0  0  0  0  0  0  0
   -6.3570   -6.9556  -21.6839 N   0  0  0  0  0  0  0  0  0  0  0  0
   -4.4783   -6.0309  -22.8905 N   0  0  0  0  0  0  0  0  0  0  0  0
   -4.8700   -3.8483  -23.7526 N   0  0  0  0  0  0  0  0  0  0  0  0
   -7.7478   -5.1864  -21.9401 N   0  0  0  0  0  0  0  0  0  0  0  0
   -6.9872   -2.7049  -23.4382 N   0  0  0  0  0  0  0  0  0  0  0  0
   -3.7685   -0.8078  -18.9899 N   0  0  0  0  0  0  0  0  0  0  0  0
   -2.5679    0.4559  -17.3173 N   0  0  0  0  0  0  0  0  0  0  0  0
   -1.5035    2.4085  -18.1652 N   0  0  0  0  0  0  0  0  0  0  0  0
   -3.3014    0.5415  -20.7453 N   0  0  0  0  0  0  0  0  0  0  0  0
   -1.6378    3.0273  -20.5053 N   0  0  0  0  0  0  0  0  0  0  0  0
 23  1  1  0
 23  3  1  0
 23 22  1  0
 24  5  1  0
 24  7  1  0
 24 20  1  1
 25  9  1  0
 25 11  1  0
 25 18  1  1
 26 13  1  0
 26 15  1  0
 26 16  1  0
 27  3  1  0
 28 27  1  1
 28 29  1  0
 28  4  1  0
 29 30  1  0
 29 21  1  1
 30 31  1  0
 30  5  1  6
 31 57  1  1
 31  4  1  0
 33 58  2  0
 34 59  2  0
 34 61  1  0
 35 60  1  0
 35 32  2  0
 36 57  1  0
 37  7  1  0
 38 37  1  6
 38 39  1  0
 38  8  1  0
 39 40  1  0
 39 19  1  6
 40 41  1  0
 40  9  1  6
 41 62  1  1
 41  8  1  0
 43 63  2  0
 44 64  2  0
 44 66  1  0
 45 65  1  0
 45 42  2  0
 46 62  1  0
 47 11  1  0
 48 47  1  6
 48 49  1  0
 48 12  1  0
 49 50  1  0
 49 17  1  1
 50 51  1  0
 50 13  1  1
 51 67  1  6
 51 12  1  0
 53 68  2  0
 54 69  2  0
 54 71  1  0
 55 70  1  0
 55 52  2  0
 56 67  1  0
 57 32  1  0
 62 42  1  0
 67 52  1  0
 23  2  2  0
 24  6  2  0
 25 10  2  0
 26 14  2  0
 32 58  1  0
 33 59  1  0
 34 35  1  0
 36 60  2  0
 42 63  1  0
 43 64  1  0
 44 45  1  0
 46 65  2  0
 52 68  1  0
 53 69  1  0
 54 55  1  0
 56 70  2  0
M  END
>  <rmsd>  (15) 
0.436057836

$$$$
CHEMBL3143543 PubChem-90663504
     RDKit          3D

 49 54  0  0  0  0  0  0  0  0999 V2000
   -5.6780   -8.6436  -20.6483 N   0  0  0  0  0  0  0  0  0  0  0  0
   -4.2620   -1.1484  -18.5440 N   0  0  0  0  0  0  0  0  0  0  0  0
   -2.8837   -0.9957  -20.3351 N   0  0  0  0  0  0  0  0  0  0  0  0
   -1.3046    1.5621  -18.2574 N   0  0  0  0  0  0  0  0  0  0  0  0
   -3.1819    0.5486  -17.2028 N   0  0  0  0  0  0  0  0  0  0  0  0
   -0.5755    0.9053  -20.4752 N   0  0  0  0  0  0  0  0  0  0  0  0
   -7.0836  -10.3242  -20.0800 N   0  0  0  0  0  0  0  0  0  0  0  0
   -7.6735  -10.3630  -23.6880 N   0  0  0  0  0  0  0  0  0  0  0  0
   -6.1023   -8.7004  -23.0275 N   0  0  0  0  0  0  0  0  0  0  0  0
   -8.7204  -11.8447  -22.0784 N   0  0  0  0  0  0  0  0  0  0  0  0
   -4.7831   -7.4976  -20.5534 C   0  0  1  0  0  0  0  0  0  0  0  0
   -5.5398   -6.2722  -20.1102 C   0  0  1  0  0  0  0  0  0  0  0  0
   -4.4670   -5.4613  -19.4408 C   0  0  1  0  0  0  0  0  0  0  0  0
   -3.4840   -6.5183  -18.9801 C   0  0  1  0  0  0  0  0  0  0  0  0
   -3.5872   -6.6836  -17.4738 C   0  0  0  0  0  0  0  0  0  0  0  0
   -7.6344   -3.2591  -19.6998 C   0  0  0  0  0  0  0  0  0  0  0  0
   -7.2776   -2.5220  -18.4248 C   0  0  2  0  0  0  0  0  0  0  0  0
   -7.4793   -1.0406  -18.6082 C   0  0  2  0  0  0  0  0  0  0  0  0
   -6.4364   -0.4487  -17.7050 C   0  0  2  0  0  0  0  0  0  0  0  0
   -5.3749   -1.5284  -17.6771 C   0  0  1  0  0  0  0  0  0  0  0  0
   -3.3272   -0.2226  -18.3074 C   0  0  0  0  0  0  0  0  0  0  0  0
   -2.5030   -0.1347  -19.3730 C   0  0  0  0  0  0  0  0  0  0  0  0
   -3.9761   -1.6042  -19.7916 C   0  0  0  0  0  0  0  0  0  0  0  0
   -1.4554    0.7741  -19.3643 C   0  0  0  0  0  0  0  0  0  0  0  0
   -2.1549    1.4524  -17.1859 C   0  0  0  0  0  0  0  0  0  0  0  0
   -6.2577   -9.1275  -21.7504 C   0  0  0  0  0  0  0  0  0  0  0  0
   -7.0921  -10.1336  -21.4128 C   0  0  0  0  0  0  0  0  0  0  0  0
   -6.2034   -9.3813  -19.6355 C   0  0  0  0  0  0  0  0  0  0  0  0
   -7.8282  -10.7814  -22.3962 C   0  0  0  0  0  0  0  0  0  0  0  0
   -6.8215   -9.3339  -24.0049 C   0  0  0  0  0  0  0  0  0  0  0  0
   -3.7611   -7.7478  -19.6191 O   0  0  0  0  0  0  0  0  0  0  0  0
   -2.5747   -7.5319  -17.0183 O   0  0  0  0  0  0  0  0  0  0  0  0
   -3.9079   -7.9802  -14.7912 O   0  0  0  0  0  0  0  0  0  0  0  0
   -1.3105   -8.2792  -14.6783 O   0  0  0  0  0  0  0  0  0  0  0  0
   -2.4736   -5.7863  -14.8586 O   0  0  0  0  0  0  0  0  0  0  0  0
   -3.8256   -4.6283  -20.3613 O   0  0  0  0  0  0  0  0  0  0  0  0
   -6.1010   -5.6051  -21.2068 O   0  0  0  0  0  0  0  0  0  0  0  0
   -8.4563   -4.7536  -21.9866 O   0  0  0  0  0  0  0  0  0  0  0  0
   -7.9573   -4.5846  -19.3991 O   0  0  0  0  0  0  0  0  0  0  0  0
   -5.9298   -2.7591  -18.0961 O   0  0  0  0  0  0  0  0  0  0  0  0
   -6.9325   -0.2696  -16.4113 O   0  0  0  0  0  0  0  0  0  0  0  0
   -8.7734   -0.6660  -18.2300 O   0  0  0  0  0  0  0  0  0  0  0  0
  -10.8167    0.6241  -19.2309 O   0  0  0  0  0  0  0  0  0  0  0  0
   -8.4535    1.5336  -19.8928 O   0  0  0  0  0  0  0  0  0  0  0  0
   -9.4524   -0.8296  -20.9179 O   0  0  0  0  0  0  0  0  0  0  0  0
   -8.4406   -6.9906  -20.6541 O   0  0  0  0  0  0  0  0  0  0  0  0
   -2.6104   -7.4083  -15.3257 P   0  0  0  0  0  0  0  0  0  0  0  0
   -7.7536   -5.4546  -20.8436 P   0  0  2  0  0  0  0  0  0  0  0  0
   -9.4095    0.1767  -19.5577 P   0  0  0  0  0  0  0  0  0  0  0  0
  1 26  1  0
  2 21  1  0
 11  1  1  1
 11 12  1  0
 11 31  1  0
 12 13  1  0
 12 37  1  6
 13 14  1  0
 13 36  1  6
 14 31  1  0
 14 15  1  1
 15 32  1  0
 16 39  1  0
 17 16  1  6
 17 18  1  0
 17 40  1  0
 18 19  1  0
 18 42  1  1
 19 20  1  0
 19 41  1  1
 20  2  1  6
 20 40  1  0
 21  5  2  0
 22  3  1  0
 22 24  2  0
 23  2  1  0
 24  6  1  0
 25  4  2  0
 26  9  2  0
 27  7  1  0
 27 29  2  0
 28  1  1  0
 29 10  1  0
 30  8  2  0
 47 32  1  0
 47 34  1  0
 47 35  1  0
 48 37  1  0
 48 39  1  0
 48 46  1  1
 49 42  1  0
 49 44  1  0
 49 45  1  0
 21 22  1  0
 23  3  2  0
 24  4  1  0
 25  5  1  0
 26 27  1  0
 28  7  2  0
 29  8  1  0
 30  9  1  0
 47 33  2  0
 48 38  2  0
 49 43  2  0
M  END
>  <rmsd>  (16) 
0.710903347

$$$$
CHEMBL384434 PubChem-44413912
     RDKit          3D

 71 79  0  0  0  0  0  0  0  0999 V2000
    0.3048    9.4603  -14.2387 O   0  0  0  0  0  0  0  0  0  0  0  0
    1.1203   11.2557  -12.5293 O   0  0  0  0  0  0  0  0  0  0  0  0
    0.9425    8.8171  -11.6013 O   0  0  0  0  0  0  0  0  0  0  0  0
   -1.5216    7.7360  -10.5312 O   0  0  0  0  0  0  0  0  0  0  0  0
   -2.7621    5.5332  -12.3828 O   0  0  0  0  0  0  0  0  0  0  0  0
   -2.8677    2.9135  -12.4010 O   0  0  0  0  0  0  0  0  0  0  0  0
   -4.5393    4.1788  -13.9923 O   0  0  0  0  0  0  0  0  0  0  0  0
   -4.7569    2.6060  -16.3664 O   0  0  0  0  0  0  0  0  0  0  0  0
   -7.0597    0.6135  -16.6552 O   0  0  0  0  0  0  0  0  0  0  0  0
   -9.0231   -0.6772  -17.8202 O   0  0  0  0  0  0  0  0  0  0  0  0
   -6.6824   -1.9169  -17.7868 O   0  0  0  0  0  0  0  0  0  0  0  0
   -5.8491   -4.5374  -17.2510 O   0  0  0  0  0  0  0  0  0  0  0  0
   -6.7019   -3.3908  -20.1441 O   0  0  0  0  0  0  0  0  0  0  0  0
   -6.4749   -2.4981  -22.5916 O   0  0  0  0  0  0  0  0  0  0  0  0
   -7.8576   -4.6979  -22.3023 O   0  0  0  0  0  0  0  0  0  0  0  0
   -5.1079   -4.6519  -22.0326 O   0  0  0  0  0  0  0  0  0  0  0  0
   -8.9484   -3.7537  -18.8248 O   0  0  0  0  0  0  0  0  0  0  0  0
   -7.1732    0.2678  -19.3891 O   0  0  0  0  0  0  0  0  0  0  0  0
   -4.4577   -0.2577  -14.5783 O   0  0  0  0  0  0  0  0  0  0  0  0
   -4.8768    4.1384  -11.2441 O   0  0  0  0  0  0  0  0  0  0  0  0
   -0.2208    4.6911  -10.2032 O   0  0  0  0  0  0  0  0  0  0  0  0
   -1.2955   10.3459  -12.1681 O   0  0  0  0  0  0  0  0  0  0  0  0
    0.2911    9.9973  -12.6336 P   0  0  0  0  0  0  0  0  0  0  0  0
   -3.7372    4.1496  -12.4967 P   0  0  2  0  0  0  0  0  0  0  0  0
   -7.5284   -0.4467  -17.8976 P   0  0  2  0  0  0  0  0  0  0  0  0
   -6.5343   -3.7765  -21.7869 P   0  0  0  0  0  0  0  0  0  0  0  0
    0.3636    7.6069  -11.9916 C   0  0  0  0  0  0  0  0  0  0  0  0
   -0.3689    6.9823  -10.8178 C   0  0  2  0  0  0  0  0  0  0  0  0
   -0.7516    5.5554  -11.1606 C   0  0  2  0  0  0  0  0  0  0  0  0
   -2.2456    5.5283  -11.0832 C   0  0  1  0  0  0  0  0  0  0  0  0
   -2.5653    6.8180  -10.3439 C   0  0  2  0  0  0  0  0  0  0  0  0
   -4.1780    8.0522  -11.8555 C   0  0  0  0  0  0  0  0  0  0  0  0
   -3.9562    8.9704  -13.9890 C   0  0  0  0  0  0  0  0  0  0  0  0
   -6.0119    9.2154  -12.8033 C   0  0  0  0  0  0  0  0  0  0  0  0
   -5.4462    8.5024  -11.7562 C   0  0  0  0  0  0  0  0  0  0  0  0
   -4.9506    7.5023   -9.9495 C   0  0  0  0  0  0  0  0  0  0  0  0
   -5.2722    2.9898  -14.0527 C   0  0  0  0  0  0  0  0  0  0  0  0
   -4.6506    2.0554  -15.0755 C   0  0  1  0  0  0  0  0  0  0  0  0
   -5.3441    0.7109  -15.0468 C   0  0  1  0  0  0  0  0  0  0  0  0
   -5.6813    0.4344  -16.4822 C   0  0  2  0  0  0  0  0  0  0  0  0
   -4.9265    1.5147  -17.2360 C   0  0  2  0  0  0  0  0  0  0  0  0
   -3.3752    0.0179  -18.5540 C   0  0  0  0  0  0  0  0  0  0  0  0
   -3.7819   -1.7677  -20.0007 C   0  0  0  0  0  0  0  0  0  0  0  0
   -1.5377   -1.0768  -19.5794 C   0  0  0  0  0  0  0  0  0  0  0  0
   -2.0413   -0.0945  -18.7377 C   0  0  0  0  0  0  0  0  0  0  0  0
   -2.3925    1.5085  -17.3932 C   0  0  0  0  0  0  0  0  0  0  0  0
   -7.3487   -2.6935  -16.8344 C   0  0  0  0  0  0  0  0  0  0  0  0
   -7.2103   -4.1830  -17.1704 C   0  0  1  0  0  0  0  0  0  0  0  0
   -7.8972   -4.6019  -18.4599 C   0  0  2  0  0  0  0  0  0  0  0  0
   -6.7889   -4.6165  -19.4730 C   0  0  2  0  0  0  0  0  0  0  0  0
   -5.5488   -4.7996  -18.6080 C   0  0  2  0  0  0  0  0  0  0  0  0
   -3.8466   -6.5973  -18.2068 C   0  0  0  0  0  0  0  0  0  0  0  0
   -1.8590   -6.5894  -16.9850 C   0  0  0  0  0  0  0  0  0  0  0  0
   -2.5347   -8.5700  -18.1302 C   0  0  0  0  0  0  0  0  0  0  0  0
   -3.6595   -7.8851  -18.5678 C   0  0  0  0  0  0  0  0  0  0  0  0
   -5.4705   -7.2067  -19.4404 C   0  0  0  0  0  0  0  0  0  0  0  0
   -3.8458    7.4075  -10.7296 N   0  0  0  0  0  0  0  0  0  0  0  0
   -3.4072    8.2731  -12.9484 N   0  0  0  0  0  0  0  0  0  0  0  0
   -5.2451    9.4348  -13.9127 N   0  0  0  0  0  0  0  0  0  0  0  0
   -5.9685    8.1723  -10.5616 N   0  0  0  0  0  0  0  0  0  0  0  0
   -7.3429    9.7106  -12.7318 N   0  0  0  0  0  0  0  0  0  0  0  0
   -3.6258    1.0202  -17.7018 N   0  0  0  0  0  0  0  0  0  0  0  0
   -4.2672   -0.7958  -19.1687 N   0  0  0  0  0  0  0  0  0  0  0  0
   -2.4301   -1.9036  -20.2006 N   0  0  0  0  0  0  0  0  0  0  0  0
   -1.3854    0.8351  -18.0186 N   0  0  0  0  0  0  0  0  0  0  0  0
   -0.1375   -1.2194  -19.7986 N   0  0  0  0  0  0  0  0  0  0  0  0
   -4.9850   -6.1441  -18.7413 N   0  0  0  0  0  0  0  0  0  0  0  0
   -2.9705   -5.9224  -17.4225 N   0  0  0  0  0  0  0  0  0  0  0  0
   -1.6477   -7.8997  -17.3371 N   0  0  0  0  0  0  0  0  0  0  0  0
   -4.6691   -8.3060  -19.3508 N   0  0  0  0  0  0  0  0  0  0  0  0
   -2.3055   -9.9276  -18.4903 N   0  0  0  0  0  0  0  0  0  0  0  0
 23  1  1  0
 23  3  1  0
 23 22  1  0
 24  5  1  0
 24  7  1  0
 24 20  1  1
 25  9  1  0
 25 11  1  0
 25 18  1  6
 26 13  1  0
 26 15  1  0
 26 16  1  0
 27  3  1  0
 28 27  1  6
 28 29  1  0
 28  4  1  0
 29 30  1  0
 29 21  1  1
 30 31  1  0
 30  5  1  6
 31 57  1  6
 31  4  1  0
 33 58  2  0
 34 59  2  0
 34 61  1  0
 35 60  1  0
 35 32  2  0
 36 57  1  0
 37  7  1  0
 38 37  1  1
 38 39  1  0
 38  8  1  0
 39 40  1  0
 39 19  1  6
 40 41  1  0
 40  9  1  1
 41 62  1  1
 41  8  1  0
 43 63  2  0
 44 64  2  0
 44 66  1  0
 45 65  1  0
 45 42  2  0
 46 62  1  0
 47 11  1  0
 48 47  1  6
 48 49  1  0
 48 12  1  0
 49 50  1  0
 49 17  1  6
 50 51  1  0
 50 13  1  1
 51 67  1  1
 51 12  1  0
 53 68  2  0
 54 69  2  0
 54 71  1  0
 55 70  1  0
 55 52  2  0
 56 67  1  0
 57 32  1  0
 62 42  1  0
 67 52  1  0
 23  2  2  0
 24  6  2  0
 25 10  2  0
 26 14  2  0
 32 58  1  0
 33 59  1  0
 34 35  1  0
 36 60  2  0
 42 63  1  0
 43 64  1  0
 44 45  1  0
 46 65  2  0
 52 68  1  0
 53 69  1  0
 54 55  1  0
 56 70  2  0
M  END
>  <rmsd>  (17) 
0.535600424

$$$$
CHEMBL373388 PubChem-44413911
     RDKit          3D

 71 79  0  0  0  0  0  0  0  0999 V2000
    3.9053  -14.6554  -19.6464 O   0  0  0  0  0  0  0  0  0  0  0  0
    3.3472  -12.1703  -19.0417 O   0  0  0  0  0  0  0  0  0  0  0  0
    1.3726  -13.9195  -18.8265 O   0  0  0  0  0  0  0  0  0  0  0  0
   -1.2031  -13.9916  -19.8656 O   0  0  0  0  0  0  0  0  0  0  0  0
   -3.2191  -11.5541  -21.2772 O   0  0  0  0  0  0  0  0  0  0  0  0
   -5.2360  -10.9314  -19.6816 O   0  0  0  0  0  0  0  0  0  0  0  0
   -5.3891  -10.1081  -22.1601 O   0  0  0  0  0  0  0  0  0  0  0  0
   -7.3636   -8.9814  -20.4102 O   0  0  0  0  0  0  0  0  0  0  0  0
   -7.4999   -5.6281  -21.4802 O   0  0  0  0  0  0  0  0  0  0  0  0
   -6.8802   -3.0912  -21.5035 O   0  0  0  0  0  0  0  0  0  0  0  0
   -5.6591   -4.5728  -19.7066 O   0  0  0  0  0  0  0  0  0  0  0  0
   -3.7685   -2.0258  -17.9972 O   0  0  0  0  0  0  0  0  0  0  0  0
   -6.5202   -0.2300  -16.6989 O   0  0  0  0  0  0  0  0  0  0  0  0
   -8.6824   -0.1363  -18.1944 O   0  0  0  0  0  0  0  0  0  0  0  0
   -6.9749    1.8217  -18.5278 O   0  0  0  0  0  0  0  0  0  0  0  0
   -8.5244    1.6153  -16.2614 O   0  0  0  0  0  0  0  0  0  0  0  0
   -6.8461   -2.7906  -16.9568 O   0  0  0  0  0  0  0  0  0  0  0  0
   -5.0446   -4.7239  -22.4074 O   0  0  0  0  0  0  0  0  0  0  0  0
   -8.1938   -7.3478  -23.2737 O   0  0  0  0  0  0  0  0  0  0  0  0
   -5.6858  -12.7866  -21.4749 O   0  0  0  0  0  0  0  0  0  0  0  0
   -1.0944  -10.5194  -20.2623 O   0  0  0  0  0  0  0  0  0  0  0  0
    2.3478  -13.0812  -21.2875 O   0  0  0  0  0  0  0  0  0  0  0  0
    2.7556  -13.4112  -19.6765 P   0  0  0  0  0  0  0  0  0  0  0  0
   -4.8960  -11.3364  -21.1002 P   0  0  1  0  0  0  0  0  0  0  0  0
   -6.2821   -4.4629  -21.2806 P   0  0  1  0  0  0  0  0  0  0  0  0
   -7.6993    0.7383  -17.4481 P   0  0  0  0  0  0  0  0  0  0  0  0
    0.5408  -12.8003  -18.7077 C   0  0  0  0  0  0  0  0  0  0  0  0
   -0.4973  -12.7816  -19.8207 C   0  0  2  0  0  0  0  0  0  0  0  0
   -1.4961  -11.6736  -19.5859 C   0  0  2  0  0  0  0  0  0  0  0  0
   -2.7874  -12.2431  -20.1349 C   0  0  2  0  0  0  0  0  0  0  0  0
   -2.4125  -13.6696  -20.4997 C   0  0  2  0  0  0  0  0  0  0  0  0
   -4.1263  -15.4546  -20.8635 C   0  0  0  0  0  0  0  0  0  0  0  0
   -4.8023  -16.5751  -22.7918 C   0  0  0  0  0  0  0  0  0  0  0  0
   -5.8338  -17.0888  -20.7009 C   0  0  0  0  0  0  0  0  0  0  0  0
   -5.0104  -16.1418  -20.1092 C   0  0  0  0  0  0  0  0  0  0  0  0
   -3.9633  -14.7968  -18.8434 C   0  0  0  0  0  0  0  0  0  0  0  0
   -6.7657  -10.2842  -22.3444 C   0  0  0  0  0  0  0  0  0  0  0  0
   -7.5490   -9.0961  -21.7990 C   0  0  2  0  0  0  0  0  0  0  0  0
   -7.1375   -7.8019  -22.4797 C   0  0  2  0  0  0  0  0  0  0  0  0
   -6.8619   -6.8649  -21.3271 C   0  0  2  0  0  0  0  0  0  0  0  0
   -7.4227   -7.6081  -20.1349 C   0  0  2  0  0  0  0  0  0  0  0  0
   -5.3582   -7.4847  -18.6875 C   0  0  0  0  0  0  0  0  0  0  0  0
   -3.1232   -8.0266  -19.0797 C   0  0  0  0  0  0  0  0  0  0  0  0
   -3.7647   -7.0906  -16.9809 C   0  0  0  0  0  0  0  0  0  0  0  0
   -5.0711   -7.0438  -17.4451 C   0  0  0  0  0  0  0  0  0  0  0  0
   -7.1476   -6.7523  -17.7872 C   0  0  0  0  0  0  0  0  0  0  0  0
   -4.7310   -3.5364  -19.5847 C   0  0  0  0  0  0  0  0  0  0  0  0
   -4.8262   -2.9336  -18.1938 C   0  0  2  0  0  0  0  0  0  0  0  0
   -6.1548   -2.2186  -18.0289 C   0  0  2  0  0  0  0  0  0  0  0  0
   -5.7621   -0.7914  -17.7359 C   0  0  2  0  0  0  0  0  0  0  0  0
   -4.3150   -0.9270  -17.3159 C   0  0  2  0  0  0  0  0  0  0  0  0
   -2.2709    0.5188  -17.2256 C   0  0  0  0  0  0  0  0  0  0  0  0
   -0.1789    0.1607  -16.2582 C   0  0  0  0  0  0  0  0  0  0  0  0
   -0.6166    2.2065  -17.4056 C   0  0  0  0  0  0  0  0  0  0  0  0
   -1.8953    1.7371  -17.6697 C   0  0  0  0  0  0  0  0  0  0  0  0
   -3.8973    1.3958  -18.2806 C   0  0  0  0  0  0  0  0  0  0  0  0
   -3.4564  -14.5992  -20.0886 N   0  0  0  0  0  0  0  0  0  0  0  0
   -3.9962  -15.6429  -22.1984 N   0  0  0  0  0  0  0  0  0  0  0  0
   -5.7096  -17.2875  -22.0469 N   0  0  0  0  0  0  0  0  0  0  0  0
   -4.9369  -15.7523  -18.8224 N   0  0  0  0  0  0  0  0  0  0  0  0
   -6.7810  -17.8310  -19.9407 N   0  0  0  0  0  0  0  0  0  0  0  0
   -6.6636   -7.3065  -18.9283 N   0  0  0  0  0  0  0  0  0  0  0  0
   -4.4139   -7.9725  -19.5295 N   0  0  0  0  0  0  0  0  0  0  0  0
   -2.8064   -7.5889  -17.8182 N   0  0  0  0  0  0  0  0  0  0  0  0
   -6.1808   -6.5746  -16.8422 N   0  0  0  0  0  0  0  0  0  0  0  0
   -3.4241   -6.6280  -15.6786 N   0  0  0  0  0  0  0  0  0  0  0  0
   -3.5320    0.2763  -17.5986 N   0  0  0  0  0  0  0  0  0  0  0  0
   -1.4432   -0.2915  -16.5215 N   0  0  0  0  0  0  0  0  0  0  0  0
    0.2253    1.3969  -16.6973 N   0  0  0  0  0  0  0  0  0  0  0  0
   -2.9011    2.3239  -18.3434 N   0  0  0  0  0  0  0  0  0  0  0  0
   -0.1870    3.4866  -17.8553 N   0  0  0  0  0  0  0  0  0  0  0  0
 23  1  1  0
 23  3  1  0
 23 22  1  0
 24  5  1  0
 24  7  1  0
 24 20  1  6
 25  9  1  0
 25 11  1  0
 25 18  1  6
 26 13  1  0
 26 15  1  0
 26 16  1  0
 27  3  1  0
 28 27  1  1
 28 29  1  0
 28  4  1  0
 29 30  1  0
 29 21  1  6
 30 31  1  0
 30  5  1  6
 31 57  1  1
 31  4  1  0
 33 58  2  0
 34 59  2  0
 34 61  1  0
 35 60  1  0
 35 32  2  0
 36 57  1  0
 37  7  1  0
 38 37  1  6
 38 39  1  0
 38  8  1  0
 39 40  1  0
 39 19  1  6
 40 41  1  0
 40  9  1  6
 41 62  1  1
 41  8  1  0
 43 63  2  0
 44 64  2  0
 44 66  1  0
 45 65  1  0
 45 42  2  0
 46 62  1  0
 47 11  1  0
 48 47  1  6
 48 49  1  0
 48 12  1  0
 49 50  1  0
 49 17  1  1
 50 51  1  0
 50 13  1  1
 51 67  1  6
 51 12  1  0
 53 68  2  0
 54 69  2  0
 54 71  1  0
 55 70  1  0
 55 52  2  0
 56 67  1  0
 57 32  1  0
 62 42  1  0
 67 52  1  0
 23  2  2  0
 24  6  2  0
 25 10  2  0
 26 14  2  0
 32 58  1  0
 33 59  1  0
 34 35  1  0
 36 60  2  0
 42 63  1  0
 43 64  1  0
 44 45  1  0
 46 65  2  0
 52 68  1  0
 53 69  1  0
 54 55  1  0
 56 70  2  0
M  END
>  <rmsd>  (18) 
0.703823686

$$$$
CHEMBL427600 PubChem-44413843
     RDKit          3D

 93104  0  0  0  0  0  0  0  0999 V2000
   -8.7795  -10.1882  -18.3321 N   0  0  0  0  0  0  0  0  0  0  0  0
   -6.9474   -8.6737  -18.4356 N   0  0  0  0  0  0  0  0  0  0  0  0
   -9.9615  -10.9080  -20.3234 N   0  0  0  0  0  0  0  0  0  0  0  0
   -8.0036   -9.1396  -21.7474 N   0  0  0  0  0  0  0  0  0  0  0  0
   -6.3983   -7.9536  -20.6798 N   0  0  0  0  0  0  0  0  0  0  0  0
   -4.5956   -0.2642  -18.8446 N   0  0  0  0  0  0  0  0  0  0  0  0
   -3.0567    0.6917  -17.2481 N   0  0  0  0  0  0  0  0  0  0  0  0
   -1.2418    1.8689  -18.2447 N   0  0  0  0  0  0  0  0  0  0  0  0
   -3.5010    0.4032  -20.7113 N   0  0  0  0  0  0  0  0  0  0  0  0
   -0.9834    2.0062  -20.6527 N   0  0  0  0  0  0  0  0  0  0  0  0
   -7.5623    6.9339  -20.1116 N   0  0  0  0  0  0  0  0  0  0  0  0
   -7.3491    6.8243  -17.7050 N   0  0  0  0  0  0  0  0  0  0  0  0
   -8.8676    8.2419  -16.5397 N   0  0  0  0  0  0  0  0  0  0  0  0
   -9.2180    8.4783  -20.1680 N   0  0  0  0  0  0  0  0  0  0  0  0
  -10.4630    9.6455  -17.7087 N   0  0  0  0  0  0  0  0  0  0  0  0
   -8.3755   13.4761  -19.1399 N   0  0  0  0  0  0  0  0  0  0  0  0
   -8.4173   15.8716  -18.8231 N   0  0  0  0  0  0  0  0  0  0  0  0
  -10.1485   16.6231  -17.3736 N   0  0  0  0  0  0  0  0  0  0  0  0
  -10.1503   12.9927  -17.8171 N   0  0  0  0  0  0  0  0  0  0  0  0
  -11.7106   15.0860  -16.3379 N   0  0  0  0  0  0  0  0  0  0  0  0
   -7.7992   -9.4582  -17.7076 C   0  0  0  0  0  0  0  0  0  0  0  0
   -7.1073   -8.6481  -19.7814 C   0  0  0  0  0  0  0  0  0  0  0  0
   -8.0615   -9.3574  -20.4192 C   0  0  0  0  0  0  0  0  0  0  0  0
   -8.9334  -10.1553  -19.6905 C   0  0  0  0  0  0  0  0  0  0  0  0
   -6.9591   -8.2715  -21.8731 C   0  0  0  0  0  0  0  0  0  0  0  0
   -5.2853   -7.0350  -20.4587 C   0  0  1  0  0  0  0  0  0  0  0  0
   -5.7682   -5.7699  -19.7736 C   0  0  1  0  0  0  0  0  0  0  0  0
   -7.6841   -3.2884  -19.3901 C   0  0  0  0  0  0  0  0  0  0  0  0
   -7.2458   -2.3693  -18.2551 C   0  0  2  0  0  0  0  0  0  0  0  0
   -7.9481   -1.0383  -18.3644 C   0  0  2  0  0  0  0  0  0  0  0  0
   -6.8846   -0.0259  -18.0253 C   0  0  2  0  0  0  0  0  0  0  0  0
   -5.6054   -0.8349  -17.9594 C   0  0  1  0  0  0  0  0  0  0  0  0
   -3.4836    0.3912  -18.4971 C   0  0  0  0  0  0  0  0  0  0  0  0
   -1.9169    1.4409  -17.1276 C   0  0  0  0  0  0  0  0  0  0  0  0
   -1.6842    1.5527  -19.5006 C   0  0  0  0  0  0  0  0  0  0  0  0
   -2.8395    0.7982  -19.6089 C   0  0  0  0  0  0  0  0  0  0  0  0
   -4.5835   -0.2517  -20.2034 C   0  0  0  0  0  0  0  0  0  0  0  0
   -5.5282    3.9367  -18.1513 C   0  0  0  0  0  0  0  0  0  0  0  0
   -5.5692    4.1544  -19.6543 C   0  0  2  0  0  0  0  0  0  0  0  0
   -4.4546    5.1015  -20.0605 C   0  0  2  0  0  0  0  0  0  0  0  0
   -5.1848    6.4075  -20.1732 C   0  0  2  0  0  0  0  0  0  0  0  0
   -6.5703    5.9716  -20.5701 C   0  0  1  0  0  0  0  0  0  0  0  0
   -7.8734    7.2942  -18.8617 C   0  0  0  0  0  0  0  0  0  0  0  0
   -7.8531    7.3160  -16.5322 C   0  0  0  0  0  0  0  0  0  0  0  0
   -9.3898    8.7076  -17.7116 C   0  0  0  0  0  0  0  0  0  0  0  0
   -8.8628    8.2142  -18.8968 C   0  0  0  0  0  0  0  0  0  0  0  0
   -8.3932    7.6704  -20.8928 C   0  0  0  0  0  0  0  0  0  0  0  0
   -5.6311   10.2934  -20.8868 C   0  0  0  0  0  0  0  0  0  0  0  0
   -5.8580   11.7963  -20.9265 C   0  0  2  0  0  0  0  0  0  0  0  0
   -4.9799   12.4999  -19.9057 C   0  0  2  0  0  0  0  0  0  0  0  0
   -5.9421   13.3957  -19.1562 C   0  0  2  0  0  0  0  0  0  0  0  0
   -7.1968   13.3276  -19.9915 C   0  0  1  0  0  0  0  0  0  0  0  0
   -8.8732   14.6083  -18.6365 C   0  0  0  0  0  0  0  0  0  0  0  0
   -9.0699   16.8876  -18.1833 C   0  0  0  0  0  0  0  0  0  0  0  0
  -10.6022   15.3447  -17.1909 C   0  0  0  0  0  0  0  0  0  0  0  0
   -9.9312   14.3212  -17.8471 C   0  0  0  0  0  0  0  0  0  0  0  0
   -9.1699   12.4986  -18.6279 C   0  0  0  0  0  0  0  0  0  0  0  0
   -5.2184   -5.9145  -18.3858 C   0  0  1  0  0  0  0  0  0  0  0  0
   -4.0471   -6.8437  -18.5617 C   0  0  1  0  0  0  0  0  0  0  0  0
   -3.8852   -7.6987  -17.3172 C   0  0  0  0  0  0  0  0  0  0  0  0
   -5.2206   -4.6547  -20.4217 O   0  0  0  0  0  0  0  0  0  0  0  0
   -7.4038   -5.0550  -21.9086 O   0  0  0  0  0  0  0  0  0  0  0  0
   -7.2873   -2.7578  -20.6244 O   0  0  0  0  0  0  0  0  0  0  0  0
   -5.8564   -2.1705  -18.3221 O   0  0  0  0  0  0  0  0  0  0  0  0
   -7.1112    0.5814  -16.7832 O   0  0  0  0  0  0  0  0  0  0  0  0
   -6.9879    2.9709  -15.7350 O   0  0  0  0  0  0  0  0  0  0  0  0
   -5.5238    2.5690  -17.8840 O   0  0  0  0  0  0  0  0  0  0  0  0
   -6.8230    4.7030  -20.0152 O   0  0  0  0  0  0  0  0  0  0  0  0
   -4.6286    7.2541  -21.1358 O   0  0  0  0  0  0  0  0  0  0  0  0
   -4.4846    8.6853  -18.8775 O   0  0  0  0  0  0  0  0  0  0  0  0
   -4.2849    9.9985  -21.1510 O   0  0  0  0  0  0  0  0  0  0  0  0
   -7.2087   12.0837  -20.6489 O   0  0  0  0  0  0  0  0  0  0  0  0
   -5.4925   14.7171  -19.0685 O   0  0  0  0  0  0  0  0  0  0  0  0
   -4.8649   16.4304  -17.1939 O   0  0  0  0  0  0  0  0  0  0  0  0
   -6.4729   14.5051  -16.4733 O   0  0  0  0  0  0  0  0  0  0  0  0
   -3.7930   14.0564  -16.9833 O   0  0  0  0  0  0  0  0  0  0  0  0
   -4.0048   13.2404  -20.5844 O   0  0  0  0  0  0  0  0  0  0  0  0
   -2.2813    8.3623  -20.2285 O   0  0  0  0  0  0  0  0  0  0  0  0
   -3.9530    4.7034  -21.3011 O   0  0  0  0  0  0  0  0  0  0  0  0
   -8.3003    2.7647  -17.9857 O   0  0  0  0  0  0  0  0  0  0  0  0
   -9.0241   -0.9958  -17.4745 O   0  0  0  0  0  0  0  0  0  0  0  0
   -5.6788   -3.3224  -22.7747 O   0  0  0  0  0  0  0  0  0  0  0  0
   -4.7948   -4.6970  -17.8482 O   0  0  0  0  0  0  0  0  0  0  0  0
   -4.2862   -7.6615  -19.6841 O   0  0  0  0  0  0  0  0  0  0  0  0
   -2.6246   -8.3022  -17.3278 O   0  0  0  0  0  0  0  0  0  0  0  0
   -3.1745  -10.3430  -18.8927 O   0  0  0  0  0  0  0  0  0  0  0  0
   -1.5463  -10.8025  -16.8991 O   0  0  0  0  0  0  0  0  0  0  0  0
   -4.2491  -10.4290  -16.5007 O   0  0  0  0  0  0  0  0  0  0  0  0
   -6.4380   -3.9971  -21.4214 P   0  0  1  0  0  0  0  0  0  0  0  0
   -6.9757    2.2506  -17.0623 P   0  0  1  0  0  0  0  0  0  0  0  0
   -3.9556    8.5725  -20.2935 P   0  0  2  0  0  0  0  0  0  0  0  0
   -5.1491   14.9631  -17.4265 P   0  0  0  0  0  0  0  0  0  0  0  0
   -2.9140   -9.9722  -17.4473 P   0  0  0  0  0  0  0  0  0  0  0  0
  5 22  1  0
  6 33  1  0
 11 43  1  0
 16 53  1  0
 21  2  2  0
 22 23  2  0
 23  4  1  0
 24  3  1  0
 24  1  2  0
 25  5  1  0
 26  5  1  1
 26 27  1  0
 26 84  1  0
 27 61  1  6
 27 58  1  0
 28 63  1  0
 29 28  1  6
 29 30  1  0
 29 64  1  0
 30 31  1  0
 30 81  1  1
 31 32  1  0
 31 65  1  1
 32  6  1  6
 32 64  1  0
 34  7  2  0
 35  8  2  0
 35 10  1  0
 36  9  1  0
 36 33  2  0
 37  6  1  0
 38 67  1  0
 39 38  1  1
 39 40  1  0
 39 68  1  0
 40 41  1  0
 40 79  1  6
 41 42  1  0
 41 69  1  6
 42 11  1  1
 42 68  1  0
 44 12  2  0
 45 13  2  0
 45 15  1  0
 46 14  1  0
 46 43  2  0
 47 11  1  0
 48 71  1  0
 49 48  1  1
 49 50  1  0
 49 72  1  0
 50 51  1  0
 50 77  1  6
 51 52  1  0
 51 73  1  6
 52 16  1  1
 52 72  1  0
 54 17  2  0
 55 18  2  0
 55 20  1  0
 56 19  1  0
 56 53  2  0
 57 16  1  0
 58 83  1  6
 58 59  1  0
 59 84  1  0
 59 60  1  1
 60 85  1  0
 89 61  1  0
 89 63  1  0
 89 82  1  6
 90 65  1  0
 90 67  1  0
 90 80  1  6
 91 69  1  0
 91 71  1  0
 91 78  1  1
 92 73  1  0
 92 75  1  0
 92 76  1  0
 93 85  1  0
 93 87  1  0
 93 88  1  0
 21  1  1  0
 22  2  1  0
 23 24  1  0
 25  4  2  0
 33  7  1  0
 34  8  1  0
 35 36  1  0
 37  9  2  0
 43 12  1  0
 44 13  1  0
 45 46  1  0
 47 14  2  0
 53 17  1  0
 54 18  1  0
 55 56  1  0
 57 19  2  0
 89 62  2  0
 90 66  2  0
 91 70  2  0
 92 74  2  0
 93 86  2  0
M  END
>  <rmsd>  (19) 
0.630717754

$$$$
CHEMBL261902 PubChem-44413877
     RDKit          3D

 93104  0  0  0  0  0  0  0  0999 V2000
    7.6820    5.6973   -5.8117 N   0  0  0  0  0  0  0  0  0  0  0  0
    5.6965    5.7565   -7.1248 N   0  0  0  0  0  0  0  0  0  0  0  0
    7.7109    6.4274   -3.5021 N   0  0  0  0  0  0  0  0  0  0  0  0
    4.8011    6.9780   -3.9611 N   0  0  0  0  0  0  0  0  0  0  0  0
    3.7679    6.6179   -5.9468 N   0  0  0  0  0  0  0  0  0  0  0  0
   -0.5740    3.3927  -10.8308 N   0  0  0  0  0  0  0  0  0  0  0  0
   -2.9527    3.5319  -11.2387 N   0  0  0  0  0  0  0  0  0  0  0  0
   -3.6082    5.4842  -12.4355 N   0  0  0  0  0  0  0  0  0  0  0  0
   -0.0155    5.3601  -11.7952 N   0  0  0  0  0  0  0  0  0  0  0  0
   -2.0039    7.1747  -13.1017 N   0  0  0  0  0  0  0  0  0  0  0  0
   -4.5527    2.4204  -16.9773 N   0  0  0  0  0  0  0  0  0  0  0  0
   -2.7723    0.7835  -16.8428 N   0  0  0  0  0  0  0  0  0  0  0  0
   -1.2892    0.8218  -18.7024 N   0  0  0  0  0  0  0  0  0  0  0  0
   -3.9666    3.2966  -18.9764 N   0  0  0  0  0  0  0  0  0  0  0  0
   -1.5852    2.3757  -20.5477 N   0  0  0  0  0  0  0  0  0  0  0  0
   -6.9022   -5.3262  -19.7200 N   0  0  0  0  0  0  0  0  0  0  0  0
   -5.8163   -3.2469  -20.3253 N   0  0  0  0  0  0  0  0  0  0  0  0
   -5.6313   -2.9093  -22.6738 N   0  0  0  0  0  0  0  0  0  0  0  0
   -7.2744   -6.0669  -21.8248 N   0  0  0  0  0  0  0  0  0  0  0  0
   -6.4705   -4.5271  -24.2701 N   0  0  0  0  0  0  0  0  0  0  0  0
    7.0311    5.4740   -7.0002 C   0  0  0  0  0  0  0  0  0  0  0  0
    5.0525    6.2615   -6.0427 C   0  0  0  0  0  0  0  0  0  0  0  0
    5.6695    6.4775   -4.8623 C   0  0  0  0  0  0  0  0  0  0  0  0
    7.0208    6.1942   -4.7262 C   0  0  0  0  0  0  0  0  0  0  0  0
    3.6307    7.0505   -4.6633 C   0  0  0  0  0  0  0  0  0  0  0  0
    2.7439    6.5338   -6.9777 C   0  0  1  0  0  0  0  0  0  0  0  0
    1.7758    5.4069   -6.6900 C   0  0  1  0  0  0  0  0  0  0  0  0
    2.2331    1.4304   -8.0119 C   0  0  0  0  0  0  0  0  0  0  0  0
    0.9981    1.0835   -8.8209 C   0  0  2  0  0  0  0  0  0  0  0  0
    1.4223    0.6390  -10.1966 C   0  0  2  0  0  0  0  0  0  0  0  0
    0.3204    1.1423  -11.0922 C   0  0  2  0  0  0  0  0  0  0  0  0
   -0.4670    2.0871  -10.1979 C   0  0  1  0  0  0  0  0  0  0  0  0
   -1.6739    3.9839  -11.3019 C   0  0  0  0  0  0  0  0  0  0  0  0
   -3.9262    4.2952  -11.8202 C   0  0  0  0  0  0  0  0  0  0  0  0
   -2.3234    5.9423  -12.4636 C   0  0  0  0  0  0  0  0  0  0  0  0
   -1.3407    5.1528  -11.8808 C   0  0  0  0  0  0  0  0  0  0  0  0
    0.4325    4.2480  -11.1469 C   0  0  0  0  0  0  0  0  0  0  0  0
   -3.2971    0.5665  -13.6697 C   0  0  0  0  0  0  0  0  0  0  0  0
   -4.6064    1.3522  -13.7418 C   0  0  2  0  0  0  0  0  0  0  0  0
   -5.7756    0.4978  -14.2154 C   0  0  1  0  0  0  0  0  0  0  0  0
   -5.8384    0.7930  -15.6772 C   0  0  2  0  0  0  0  0  0  0  0  0
   -5.2873    2.2010  -15.7399 C   0  0  1  0  0  0  0  0  0  0  0  0
   -3.4612    1.7884  -17.4349 C   0  0  0  0  0  0  0  0  0  0  0  0
   -1.6692    0.2998  -17.4890 C   0  0  0  0  0  0  0  0  0  0  0  0
   -1.9902    1.8391  -19.2924 C   0  0  0  0  0  0  0  0  0  0  0  0
   -3.1083    2.3171  -18.6251 C   0  0  0  0  0  0  0  0  0  0  0  0
   -4.8449    3.3350  -17.9318 C   0  0  0  0  0  0  0  0  0  0  0  0
   -7.0351   -2.3133  -16.3426 C   0  0  0  0  0  0  0  0  0  0  0  0
   -6.9553   -3.8107  -16.5847 C   0  0  2  0  0  0  0  0  0  0  0  0
   -5.5186   -4.3004  -16.5743 C   0  0  2  0  0  0  0  0  0  0  0  0
   -5.4465   -5.2254  -17.7649 C   0  0  2  0  0  0  0  0  0  0  0  0
   -6.8751   -5.2798  -18.2652 C   0  0  1  0  0  0  0  0  0  0  0  0
   -6.4350   -4.4268  -20.5940 C   0  0  0  0  0  0  0  0  0  0  0  0
   -5.4157   -2.4811  -21.3880 C   0  0  0  0  0  0  0  0  0  0  0  0
   -6.2503   -4.1013  -22.9306 C   0  0  0  0  0  0  0  0  0  0  0  0
   -6.6581   -4.8683  -21.8489 C   0  0  0  0  0  0  0  0  0  0  0  0
   -7.4139   -6.3188  -20.4913 C   0  0  0  0  0  0  0  0  0  0  0  0
    0.4621    5.9220   -7.2080 C   0  0  2  0  0  0  0  0  0  0  0  0
    0.8096    7.3394   -7.6604 C   0  0  1  0  0  0  0  0  0  0  0  0
   -0.3188    8.3338   -7.4009 C   0  0  0  0  0  0  0  0  0  0  0  0
    2.1562    4.2574   -7.3822 O   0  0  0  0  0  0  0  0  0  0  0  0
    4.0285    2.9730   -6.0614 O   0  0  0  0  0  0  0  0  0  0  0  0
    1.8881    1.5833   -6.6679 O   0  0  0  0  0  0  0  0  0  0  0  0
    0.1718    2.2155   -8.9517 O   0  0  0  0  0  0  0  0  0  0  0  0
   -0.5063    0.0966  -11.5298 O   0  0  0  0  0  0  0  0  0  0  0  0
    0.2714    1.1442  -13.8419 O   0  0  0  0  0  0  0  0  0  0  0  0
   -2.2642    1.3900  -13.2307 O   0  0  0  0  0  0  0  0  0  0  0  0
   -4.4505    2.4406  -14.6288 O   0  0  0  0  0  0  0  0  0  0  0  0
   -7.1601    0.7680  -16.1273 O   0  0  0  0  0  0  0  0  0  0  0  0
   -6.5089    0.6088  -18.6707 O   0  0  0  0  0  0  0  0  0  0  0  0
   -6.3011   -1.6192  -17.3098 O   0  0  0  0  0  0  0  0  0  0  0  0
   -7.5521   -4.1385  -17.8134 O   0  0  0  0  0  0  0  0  0  0  0  0
   -5.0076   -6.5058  -17.4077 O   0  0  0  0  0  0  0  0  0  0  0  0
   -3.1380   -5.7653  -19.1515 O   0  0  0  0  0  0  0  0  0  0  0  0
   -2.6864   -7.9418  -17.7727 O   0  0  0  0  0  0  0  0  0  0  0  0
   -4.5688   -7.8585  -19.7783 O   0  0  0  0  0  0  0  0  0  0  0  0
   -5.2677   -4.9671  -15.3720 O   0  0  0  0  0  0  0  0  0  0  0  0
   -8.7522   -0.5168  -17.9829 O   0  0  0  0  0  0  0  0  0  0  0  0
   -5.5695   -0.8641  -13.9985 O   0  0  0  0  0  0  0  0  0  0  0  0
   -1.1043   -1.0571  -13.9659 O   0  0  0  0  0  0  0  0  0  0  0  0
    1.5526   -0.7525  -10.2280 O   0  0  0  0  0  0  0  0  0  0  0  0
    1.8614    3.4932   -4.6918 O   0  0  0  0  0  0  0  0  0  0  0  0
   -0.4488    5.9301   -6.1458 O   0  0  0  0  0  0  0  0  0  0  0  0
    2.0063    7.7238   -7.0370 O   0  0  0  0  0  0  0  0  0  0  0  0
    0.1693    9.6443   -7.3555 O   0  0  0  0  0  0  0  0  0  0  0  0
   -2.0584   10.6187   -8.3456 O   0  0  0  0  0  0  0  0  0  0  0  0
   -2.0889   10.0471   -5.7825 O   0  0  0  0  0  0  0  0  0  0  0  0
   -0.6875   12.2093   -6.7740 O   0  0  0  0  0  0  0  0  0  0  0  0
    2.5243    3.0852   -6.1998 P   0  0  2  0  0  0  0  0  0  0  0  0
   -0.8708    0.4176  -13.1622 P   0  0  2  0  0  0  0  0  0  0  0  0
   -7.1541   -0.1688  -17.5448 P   0  0  1  0  0  0  0  0  0  0  0  0
   -3.8305   -6.9683  -18.5457 P   0  0  0  0  0  0  0  0  0  0  0  0
   -1.1930   10.6248   -7.1027 P   0  0  0  0  0  0  0  0  0  0  0  0
  5 22  1  0
  6 33  1  0
 11 43  1  0
 16 53  1  0
 21  2  2  0
 22 23  2  0
 23  4  1  0
 24  3  1  0
 24  1  2  0
 25  5  1  0
 26  5  1  1
 26 27  1  0
 26 84  1  0
 27 61  1  6
 27 58  1  0
 28 63  1  0
 29 28  1  1
 29 30  1  0
 29 64  1  0
 30 31  1  0
 30 81  1  1
 31 32  1  0
 31 65  1  1
 32  6  1  6
 32 64  1  0
 34  7  2  0
 35  8  2  0
 35 10  1  0
 36  9  1  0
 36 33  2  0
 37  6  1  0
 38 67  1  0
 39 38  1  6
 39 40  1  0
 39 68  1  0
 40 41  1  0
 40 79  1  6
 41 42  1  0
 41 69  1  1
 42 11  1  6
 42 68  1  0
 44 12  2  0
 45 13  2  0
 45 15  1  0
 46 14  1  0
 46 43  2  0
 47 11  1  0
 48 71  1  0
 49 48  1  6
 49 50  1  0
 49 72  1  0
 50 51  1  0
 50 77  1  1
 51 52  1  0
 51 73  1  1
 52 16  1  6
 52 72  1  0
 54 17  2  0
 55 18  2  0
 55 20  1  0
 56 19  1  0
 56 53  2  0
 57 16  1  0
 58 83  1  1
 58 59  1  0
 59 84  1  0
 59 60  1  1
 60 85  1  0
 89 61  1  0
 89 63  1  0
 89 82  1  1
 90 65  1  0
 90 67  1  0
 90 80  1  6
 91 69  1  0
 91 71  1  0
 91 78  1  6
 92 73  1  0
 92 75  1  0
 92 76  1  0
 93 85  1  0
 93 87  1  0
 93 88  1  0
 21  1  1  0
 22  2  1  0
 23 24  1  0
 25  4  2  0
 33  7  1  0
 34  8  1  0
 35 36  1  0
 37  9  2  0
 43 12  1  0
 44 13  1  0
 45 46  1  0
 47 14  2  0
 53 17  1  0
 54 18  1  0
 55 56  1  0
 57 19  2  0
 89 62  2  0
 90 66  2  0
 91 70  2  0
 92 74  2  0
 93 86  2  0
M  END
>  <rmsd>  (20) 
0.591524601

$$$$
CHEMBL267824 PubChem-44413875
     RDKit          3D

 93104  0  0  0  0  0  0  0  0999 V2000
   -3.9639  -23.5911  -15.3104 N   0  0  0  0  0  0  0  0  0  0  0  0
   -5.5110  -21.8282  -14.9210 N   0  0  0  0  0  0  0  0  0  0  0  0
   -2.1462  -24.0612  -13.7754 N   0  0  0  0  0  0  0  0  0  0  0  0
   -3.2757  -21.7546  -12.2241 N   0  0  0  0  0  0  0  0  0  0  0  0
   -5.1133  -20.6031  -12.8733 N   0  0  0  0  0  0  0  0  0  0  0  0
   -5.7206  -11.8067  -17.3648 N   0  0  0  0  0  0  0  0  0  0  0  0
   -5.9942  -12.2875  -15.0068 N   0  0  0  0  0  0  0  0  0  0  0  0
   -7.7319  -11.0385  -13.9675 N   0  0  0  0  0  0  0  0  0  0  0  0
   -7.3560  -10.2439  -17.5145 N   0  0  0  0  0  0  0  0  0  0  0  0
   -9.0765   -9.4368  -15.1915 N   0  0  0  0  0  0  0  0  0  0  0  0
   -6.7296   -5.4640  -16.2217 N   0  0  0  0  0  0  0  0  0  0  0  0
   -4.4884   -4.5629  -16.1024 N   0  0  0  0  0  0  0  0  0  0  0  0
   -4.3618   -2.4395  -15.0401 N   0  0  0  0  0  0  0  0  0  0  0  0
   -7.7669   -3.7558  -15.1658 N   0  0  0  0  0  0  0  0  0  0  0  0
   -6.3288   -1.3269  -14.1827 N   0  0  0  0  0  0  0  0  0  0  0  0
   -3.9981    0.5769  -17.8857 N   0  0  0  0  0  0  0  0  0  0  0  0
   -2.2146   -0.7288  -16.9133 N   0  0  0  0  0  0  0  0  0  0  0  0
   -0.0478    0.2035  -17.2305 N   0  0  0  0  0  0  0  0  0  0  0  0
   -2.6905    2.2281  -18.7338 N   0  0  0  0  0  0  0  0  0  0  0  0
    0.2864    2.2843  -18.4225 N   0  0  0  0  0  0  0  0  0  0  0  0
   -5.0630  -22.8634  -15.6930 C   0  0  0  0  0  0  0  0  0  0  0  0
   -4.8413  -21.5538  -13.7756 C   0  0  0  0  0  0  0  0  0  0  0  0
   -3.7502  -22.2433  -13.3863 C   0  0  0  0  0  0  0  0  0  0  0  0
   -3.2843  -23.2963  -14.1635 C   0  0  0  0  0  0  0  0  0  0  0  0
   -4.1406  -20.7381  -11.9368 C   0  0  0  0  0  0  0  0  0  0  0  0
   -6.2010  -19.6249  -12.8611 C   0  0  1  0  0  0  0  0  0  0  0  0
   -5.9378  -18.4224  -13.7489 C   0  0  2  0  0  0  0  0  0  0  0  0
   -3.7494  -15.1952  -15.5910 C   0  0  0  0  0  0  0  0  0  0  0  0
   -3.6957  -14.6223  -17.0002 C   0  0  2  0  0  0  0  0  0  0  0  0
   -2.5835  -13.5922  -17.0800 C   0  0  2  0  0  0  0  0  0  0  0  0
   -3.3395  -12.2918  -17.1552 C   0  0  2  0  0  0  0  0  0  0  0  0
   -4.6517  -12.7175  -17.7557 C   0  0  1  0  0  0  0  0  0  0  0  0
   -6.2833  -11.6358  -16.1600 C   0  0  0  0  0  0  0  0  0  0  0  0
   -6.7358  -11.9807  -13.8998 C   0  0  0  0  0  0  0  0  0  0  0  0
   -8.0116  -10.3812  -15.1303 C   0  0  0  0  0  0  0  0  0  0  0  0
   -7.2572  -10.7040  -16.2514 C   0  0  0  0  0  0  0  0  0  0  0  0
   -6.3874  -10.9470  -18.1743 C   0  0  0  0  0  0  0  0  0  0  0  0
   -3.2741   -7.9328  -16.8371 C   0  0  0  0  0  0  0  0  0  0  0  0
   -4.6886   -7.9186  -17.3885 C   0  0  2  0  0  0  0  0  0  0  0  0
   -4.7787   -6.9598  -18.5510 C   0  0  2  0  0  0  0  0  0  0  0  0
   -6.1670   -6.4279  -18.4473 C   0  0  1  0  0  0  0  0  0  0  0  0
   -6.5449   -6.6923  -16.9920 C   0  0  1  0  0  0  0  0  0  0  0  0
   -5.8216   -4.5494  -15.8631 C   0  0  0  0  0  0  0  0  0  0  0  0
   -3.7556   -3.4917  -15.6746 C   0  0  0  0  0  0  0  0  0  0  0  0
   -5.7066   -2.4367  -14.8077 C   0  0  0  0  0  0  0  0  0  0  0  0
   -6.4427   -3.5297  -15.2376 C   0  0  0  0  0  0  0  0  0  0  0  0
   -7.9081   -4.9640  -15.7832 C   0  0  0  0  0  0  0  0  0  0  0  0
   -6.6198   -2.4811  -19.8351 C   0  0  0  0  0  0  0  0  0  0  0  0
   -6.5005   -1.7420  -18.5138 C   0  0  2  0  0  0  0  0  0  0  0  0
   -7.2872   -0.4585  -18.5694 C   0  0  2  0  0  0  0  0  0  0  0  0
   -6.4678    0.4985  -17.7438 C   0  0  2  0  0  0  0  0  0  0  0  0
   -5.1577   -0.2393  -17.5263 C   0  0  1  0  0  0  0  0  0  0  0  0
   -2.7178    0.3205  -17.6095 C   0  0  0  0  0  0  0  0  0  0  0  0
   -0.8609   -0.7841  -16.7310 C   0  0  0  0  0  0  0  0  0  0  0  0
   -0.5649    1.2631  -17.9193 C   0  0  0  0  0  0  0  0  0  0  0  0
   -1.9390    1.3039  -18.1101 C   0  0  0  0  0  0  0  0  0  0  0  0
   -3.9572    1.7465  -18.5849 C   0  0  0  0  0  0  0  0  0  0  0  0
   -7.3269  -18.0025  -14.1361 C   0  0  1  0  0  0  0  0  0  0  0  0
   -8.2192  -19.1349  -13.6643 C   0  0  1  0  0  0  0  0  0  0  0  0
   -9.1167  -19.5705  -14.8076 C   0  0  0  0  0  0  0  0  0  0  0  0
   -5.2400  -18.7924  -14.9033 O   0  0  0  0  0  0  0  0  0  0  0  0
   -3.2133  -17.4759  -13.8519 O   0  0  0  0  0  0  0  0  0  0  0  0
   -4.7838  -16.1290  -15.4811 O   0  0  0  0  0  0  0  0  0  0  0  0
   -4.9318  -14.0212  -17.3191 O   0  0  0  0  0  0  0  0  0  0  0  0
   -2.7101  -11.3532  -17.9808 O   0  0  0  0  0  0  0  0  0  0  0  0
   -0.6147  -10.3052  -16.8387 O   0  0  0  0  0  0  0  0  0  0  0  0
   -2.4230   -8.6293  -17.6971 O   0  0  0  0  0  0  0  0  0  0  0  0
   -5.5735   -7.5027  -16.3788 O   0  0  0  0  0  0  0  0  0  0  0  0
   -6.1750   -5.0632  -18.7551 O   0  0  0  0  0  0  0  0  0  0  0  0
   -8.7057   -5.5531  -19.3283 O   0  0  0  0  0  0  0  0  0  0  0  0
   -7.8471   -3.1492  -19.8940 O   0  0  0  0  0  0  0  0  0  0  0  0
   -5.1549   -1.4280  -18.2770 O   0  0  0  0  0  0  0  0  0  0  0  0
   -7.0626    0.7495  -16.5026 O   0  0  0  0  0  0  0  0  0  0  0  0
   -5.5304    2.8434  -16.0919 O   0  0  0  0  0  0  0  0  0  0  0  0
   -7.8477    2.8645  -14.8982 O   0  0  0  0  0  0  0  0  0  0  0  0
   -7.6175    3.2311  -17.6171 O   0  0  0  0  0  0  0  0  0  0  0  0
   -8.5732   -0.6454  -18.0487 O   0  0  0  0  0  0  0  0  0  0  0  0
   -7.0753   -5.3712  -21.3565 O   0  0  0  0  0  0  0  0  0  0  0  0
   -4.6252   -7.6461  -19.7565 O   0  0  0  0  0  0  0  0  0  0  0  0
   -2.7904  -10.2194  -15.4091 O   0  0  0  0  0  0  0  0  0  0  0  0
   -1.8478  -13.8157  -18.2478 O   0  0  0  0  0  0  0  0  0  0  0  0
   -3.0407  -18.0724  -16.3940 O   0  0  0  0  0  0  0  0  0  0  0  0
   -7.6689  -16.8377  -13.4497 O   0  0  0  0  0  0  0  0  0  0  0  0
   -7.4155  -20.2095  -13.2438 O   0  0  0  0  0  0  0  0  0  0  0  0
  -10.0311  -20.5216  -14.3509 O   0  0  0  0  0  0  0  0  0  0  0  0
   -8.4624  -22.5310  -14.9819 O   0  0  0  0  0  0  0  0  0  0  0  0
  -11.0192  -23.0083  -15.0314 O   0  0  0  0  0  0  0  0  0  0  0  0
   -9.7991  -21.4461  -16.9552 O   0  0  0  0  0  0  0  0  0  0  0  0
   -4.0427  -17.6099  -15.1119 P   0  0  2  0  0  0  0  0  0  0  0  0
   -2.1092  -10.1287  -16.9584 P   0  0  1  0  0  0  0  0  0  0  0  0
   -7.4832   -4.8092  -19.8161 P   0  0  1  0  0  0  0  0  0  0  0  0
   -6.9708    2.4281  -16.2770 P   0  0  0  0  0  0  0  0  0  0  0  0
   -9.7875  -21.8903  -15.3190 P   0  0  0  0  0  0  0  0  0  0  0  0
  5 22  1  0
  6 33  1  0
 11 43  1  0
 16 53  1  0
 21  2  2  0
 22 23  2  0
 23  4  1  0
 24  3  1  0
 24  1  2  0
 25  5  1  0
 26  5  1  6
 26 27  1  0
 26 84  1  0
 27 61  1  6
 27 58  1  0
 28 63  1  0
 29 28  1  1
 29 30  1  0
 29 64  1  0
 30 31  1  0
 30 81  1  6
 31 32  1  0
 31 65  1  6
 32  6  1  1
 32 64  1  0
 34  7  2  0
 35  8  2  0
 35 10  1  0
 36  9  1  0
 36 33  2  0
 37  6  1  0
 38 67  1  0
 39 38  1  1
 39 40  1  0
 39 68  1  0
 40 41  1  0
 40 79  1  6
 41 42  1  0
 41 69  1  1
 42 11  1  1
 42 68  1  0
 44 12  2  0
 45 13  2  0
 45 15  1  0
 46 14  1  0
 46 43  2  0
 47 11  1  0
 48 71  1  0
 49 48  1  6
 49 50  1  0
 49 72  1  0
 50 51  1  0
 50 77  1  1
 51 52  1  0
 51 73  1  1
 52 16  1  6
 52 72  1  0
 54 17  2  0
 55 18  2  0
 55 20  1  0
 56 19  1  0
 56 53  2  0
 57 16  1  0
 58 83  1  1
 58 59  1  0
 59 84  1  0
 59 60  1  6
 60 85  1  0
 89 61  1  0
 89 63  1  0
 89 82  1  6
 90 65  1  0
 90 67  1  0
 90 80  1  1
 91 69  1  0
 91 71  1  0
 91 78  1  6
 92 73  1  0
 92 75  1  0
 92 76  1  0
 93 85  1  0
 93 87  1  0
 93 88  1  0
 21  1  1  0
 22  2  1  0
 23 24  1  0
 25  4  2  0
 33  7  1  0
 34  8  1  0
 35 36  1  0
 37  9  2  0
 43 12  1  0
 44 13  1  0
 45 46  1  0
 47 14  2  0
 53 17  1  0
 54 18  1  0
 55 56  1  0
 57 19  2  0
 89 62  2  0
 90 66  2  0
 91 70  2  0
 92 74  2  0
 93 86  2  0
M  END
>  <rmsd>  (21) 
0.67692256

$$$$
